&HEAD CHID='FSRI_Particleboard', /
&TIME DT=1., T_END=20000.0 /
&DUMP DT_CTRL=1.0, DT_DEVC=1.0, DT_HRR=1.0, SIG_FIGS=4, SIG_FIGS_EXP=2, /
&MISC SOLID_PHASE_ONLY=.TRUE., TMPA=27., /
&MESH ID='MESH', IJK=3,3,3, XB=0.,0.3,0.,0.3,0.,0.3, /
&REAC ID='PROPANE', FUEL='PROPANE', /
&MATL ID='BACKING', CONDUCTIVITY=0.10, DENSITY=65., EMISSIVITY=0.9, SPECIFIC_HEAT=1.14, /
&MATL ID='SAMPLE', CONDUCTIVITY=0.1340, DENSITY=677.0, EMISSIVITY=1.0000, SPECIFIC_HEAT=1578.0000, /
&RAMP ID='CONE-RAMP', T=0.0000, F=40.4, /
&RAMP ID='CONE-RAMP', T=0.9694, F=51.6, /
&RAMP ID='CONE-RAMP', T=1.9387, F=64.1, /
&RAMP ID='CONE-RAMP', T=2.9081, F=77.7, /
&RAMP ID='CONE-RAMP', T=3.8774, F=91.9, /
&RAMP ID='CONE-RAMP', T=4.8468, F=106.1, /
&RAMP ID='CONE-RAMP', T=5.8161, F=120.2, /
&RAMP ID='CONE-RAMP', T=6.7855, F=133.7, /
&RAMP ID='CONE-RAMP', T=7.7548, F=146.9, /
&RAMP ID='CONE-RAMP', T=8.7242, F=159.8, /
&RAMP ID='CONE-RAMP', T=9.6935, F=172.4, /
&RAMP ID='CONE-RAMP', T=10.6629, F=184.3, /
&RAMP ID='CONE-RAMP', T=11.6322, F=195.3, /
&RAMP ID='CONE-RAMP', T=12.6016, F=205.6, /
&RAMP ID='CONE-RAMP', T=13.5710, F=215.3, /
&RAMP ID='CONE-RAMP', T=14.5403, F=224.3, /
&RAMP ID='CONE-RAMP', T=15.5097, F=232.8, /
&RAMP ID='CONE-RAMP', T=16.4790, F=241.0, /
&RAMP ID='CONE-RAMP', T=17.4484, F=248.6, /
&RAMP ID='CONE-RAMP', T=18.4177, F=255.3, /
&RAMP ID='CONE-RAMP', T=19.3871, F=261.3, /
&RAMP ID='CONE-RAMP', T=20.3564, F=266.7, /
&RAMP ID='CONE-RAMP', T=21.3258, F=271.5, /
&RAMP ID='CONE-RAMP', T=22.2951, F=275.7, /
&RAMP ID='CONE-RAMP', T=23.2645, F=279.6, /
&RAMP ID='CONE-RAMP', T=24.2338, F=282.9, /
&RAMP ID='CONE-RAMP', T=25.2032, F=285.8, /
&RAMP ID='CONE-RAMP', T=26.1726, F=288.2, /
&RAMP ID='CONE-RAMP', T=27.1419, F=290.1, /
&RAMP ID='CONE-RAMP', T=28.1113, F=291.5, /
&RAMP ID='CONE-RAMP', T=29.0806, F=293.1, /
&RAMP ID='CONE-RAMP', T=30.0500, F=294.2, /
&RAMP ID='CONE-RAMP', T=31.0193, F=295.1, /
&RAMP ID='CONE-RAMP', T=31.9887, F=295.6, /
&RAMP ID='CONE-RAMP', T=32.9580, F=295.8, /
&RAMP ID='CONE-RAMP', T=33.9274, F=295.7, /
&RAMP ID='CONE-RAMP', T=34.8967, F=295.2, /
&RAMP ID='CONE-RAMP', T=35.8661, F=294.8, /
&RAMP ID='CONE-RAMP', T=36.8354, F=293.9, /
&RAMP ID='CONE-RAMP', T=37.8048, F=293.1, /
&RAMP ID='CONE-RAMP', T=38.7742, F=292.2, /
&RAMP ID='CONE-RAMP', T=39.7435, F=291.3, /
&RAMP ID='CONE-RAMP', T=40.7129, F=290.2, /
&RAMP ID='CONE-RAMP', T=41.6822, F=288.9, /
&RAMP ID='CONE-RAMP', T=42.6516, F=287.5, /
&RAMP ID='CONE-RAMP', T=43.6209, F=286.1, /
&RAMP ID='CONE-RAMP', T=44.5903, F=284.6, /
&RAMP ID='CONE-RAMP', T=45.5596, F=283.0, /
&RAMP ID='CONE-RAMP', T=46.5290, F=281.3, /
&RAMP ID='CONE-RAMP', T=47.4983, F=279.7, /
&RAMP ID='CONE-RAMP', T=48.4677, F=277.9, /
&RAMP ID='CONE-RAMP', T=49.4370, F=275.9, /
&RAMP ID='CONE-RAMP', T=50.4064, F=273.5, /
&RAMP ID='CONE-RAMP', T=51.3757, F=271.4, /
&RAMP ID='CONE-RAMP', T=52.3451, F=268.9, /
&RAMP ID='CONE-RAMP', T=53.3145, F=266.7, /
&RAMP ID='CONE-RAMP', T=54.2838, F=264.4, /
&RAMP ID='CONE-RAMP', T=55.2532, F=262.1, /
&RAMP ID='CONE-RAMP', T=56.2225, F=259.5, /
&RAMP ID='CONE-RAMP', T=57.1919, F=256.8, /
&RAMP ID='CONE-RAMP', T=58.1612, F=254.1, /
&RAMP ID='CONE-RAMP', T=59.1306, F=251.4, /
&RAMP ID='CONE-RAMP', T=60.0999, F=248.9, /
&RAMP ID='CONE-RAMP', T=61.0693, F=246.4, /
&RAMP ID='CONE-RAMP', T=62.0386, F=243.8, /
&RAMP ID='CONE-RAMP', T=63.0080, F=241.4, /
&RAMP ID='CONE-RAMP', T=63.9773, F=238.9, /
&RAMP ID='CONE-RAMP', T=64.9467, F=236.6, /
&RAMP ID='CONE-RAMP', T=65.9161, F=234.2, /
&RAMP ID='CONE-RAMP', T=66.8854, F=232.0, /
&RAMP ID='CONE-RAMP', T=67.8548, F=229.8, /
&RAMP ID='CONE-RAMP', T=68.8241, F=227.5, /
&RAMP ID='CONE-RAMP', T=69.7935, F=225.2, /
&RAMP ID='CONE-RAMP', T=70.7628, F=222.9, /
&RAMP ID='CONE-RAMP', T=71.7322, F=220.6, /
&RAMP ID='CONE-RAMP', T=72.7015, F=218.3, /
&RAMP ID='CONE-RAMP', T=73.6709, F=216.0, /
&RAMP ID='CONE-RAMP', T=74.6402, F=213.6, /
&RAMP ID='CONE-RAMP', T=75.6096, F=211.1, /
&RAMP ID='CONE-RAMP', T=76.5789, F=208.8, /
&RAMP ID='CONE-RAMP', T=77.5483, F=206.6, /
&RAMP ID='CONE-RAMP', T=78.5177, F=204.5, /
&RAMP ID='CONE-RAMP', T=79.4870, F=202.4, /
&RAMP ID='CONE-RAMP', T=80.4564, F=200.3, /
&RAMP ID='CONE-RAMP', T=81.4257, F=198.2, /
&RAMP ID='CONE-RAMP', T=82.3951, F=196.2, /
&RAMP ID='CONE-RAMP', T=83.3644, F=194.3, /
&RAMP ID='CONE-RAMP', T=84.3338, F=192.4, /
&RAMP ID='CONE-RAMP', T=85.3031, F=190.4, /
&RAMP ID='CONE-RAMP', T=86.2725, F=188.6, /
&RAMP ID='CONE-RAMP', T=87.2418, F=186.7, /
&RAMP ID='CONE-RAMP', T=88.2112, F=185.0, /
&RAMP ID='CONE-RAMP', T=89.1805, F=183.2, /
&RAMP ID='CONE-RAMP', T=90.1499, F=181.4, /
&RAMP ID='CONE-RAMP', T=91.1193, F=179.8, /
&RAMP ID='CONE-RAMP', T=92.0886, F=178.1, /
&RAMP ID='CONE-RAMP', T=93.0580, F=176.4, /
&RAMP ID='CONE-RAMP', T=94.0273, F=174.7, /
&RAMP ID='CONE-RAMP', T=94.9967, F=173.2, /
&RAMP ID='CONE-RAMP', T=95.9660, F=171.7, /
&RAMP ID='CONE-RAMP', T=96.9354, F=170.2, /
&RAMP ID='CONE-RAMP', T=97.9047, F=168.7, /
&RAMP ID='CONE-RAMP', T=98.8741, F=167.3, /
&RAMP ID='CONE-RAMP', T=99.8434, F=166.0, /
&RAMP ID='CONE-RAMP', T=100.8128, F=164.7, /
&RAMP ID='CONE-RAMP', T=101.7821, F=163.6, /
&RAMP ID='CONE-RAMP', T=102.7515, F=162.5, /
&RAMP ID='CONE-RAMP', T=103.7209, F=161.6, /
&RAMP ID='CONE-RAMP', T=104.6902, F=160.6, /
&RAMP ID='CONE-RAMP', T=105.6596, F=159.7, /
&RAMP ID='CONE-RAMP', T=106.6289, F=158.6, /
&RAMP ID='CONE-RAMP', T=107.5983, F=157.8, /
&RAMP ID='CONE-RAMP', T=108.5676, F=156.9, /
&RAMP ID='CONE-RAMP', T=109.5370, F=156.0, /
&RAMP ID='CONE-RAMP', T=110.5063, F=155.1, /
&RAMP ID='CONE-RAMP', T=111.4757, F=154.2, /
&RAMP ID='CONE-RAMP', T=112.4450, F=153.2, /
&RAMP ID='CONE-RAMP', T=113.4144, F=152.3, /
&RAMP ID='CONE-RAMP', T=114.3837, F=151.3, /
&RAMP ID='CONE-RAMP', T=115.3531, F=150.4, /
&RAMP ID='CONE-RAMP', T=116.3225, F=149.6, /
&RAMP ID='CONE-RAMP', T=117.2918, F=148.7, /
&RAMP ID='CONE-RAMP', T=118.2612, F=147.8, /
&RAMP ID='CONE-RAMP', T=119.2305, F=147.1, /
&RAMP ID='CONE-RAMP', T=120.1999, F=146.4, /
&RAMP ID='CONE-RAMP', T=121.1692, F=145.7, /
&RAMP ID='CONE-RAMP', T=122.1386, F=145.0, /
&RAMP ID='CONE-RAMP', T=123.1079, F=144.4, /
&RAMP ID='CONE-RAMP', T=124.0773, F=143.7, /
&RAMP ID='CONE-RAMP', T=125.0466, F=143.2, /
&RAMP ID='CONE-RAMP', T=126.0160, F=142.6, /
&RAMP ID='CONE-RAMP', T=126.9853, F=142.0, /
&RAMP ID='CONE-RAMP', T=127.9547, F=141.5, /
&RAMP ID='CONE-RAMP', T=128.9241, F=140.9, /
&RAMP ID='CONE-RAMP', T=129.8934, F=140.4, /
&RAMP ID='CONE-RAMP', T=130.8628, F=139.9, /
&RAMP ID='CONE-RAMP', T=131.8321, F=139.4, /
&RAMP ID='CONE-RAMP', T=132.8015, F=138.9, /
&RAMP ID='CONE-RAMP', T=133.7708, F=138.4, /
&RAMP ID='CONE-RAMP', T=134.7402, F=137.9, /
&RAMP ID='CONE-RAMP', T=135.7095, F=137.4, /
&RAMP ID='CONE-RAMP', T=136.6789, F=136.8, /
&RAMP ID='CONE-RAMP', T=137.6482, F=136.4, /
&RAMP ID='CONE-RAMP', T=138.6176, F=135.9, /
&RAMP ID='CONE-RAMP', T=139.5869, F=135.4, /
&RAMP ID='CONE-RAMP', T=140.5563, F=134.9, /
&RAMP ID='CONE-RAMP', T=141.5256, F=134.4, /
&RAMP ID='CONE-RAMP', T=142.4950, F=134.0, /
&RAMP ID='CONE-RAMP', T=143.4644, F=133.5, /
&RAMP ID='CONE-RAMP', T=144.4337, F=133.0, /
&RAMP ID='CONE-RAMP', T=145.4031, F=132.6, /
&RAMP ID='CONE-RAMP', T=146.3724, F=132.1, /
&RAMP ID='CONE-RAMP', T=147.3418, F=131.8, /
&RAMP ID='CONE-RAMP', T=148.3111, F=131.3, /
&RAMP ID='CONE-RAMP', T=149.2805, F=130.8, /
&RAMP ID='CONE-RAMP', T=150.2498, F=130.4, /
&RAMP ID='CONE-RAMP', T=151.2192, F=130.0, /
&RAMP ID='CONE-RAMP', T=152.1885, F=129.6, /
&RAMP ID='CONE-RAMP', T=153.1579, F=129.2, /
&RAMP ID='CONE-RAMP', T=154.1272, F=128.9, /
&RAMP ID='CONE-RAMP', T=155.0966, F=128.6, /
&RAMP ID='CONE-RAMP', T=156.0660, F=128.2, /
&RAMP ID='CONE-RAMP', T=157.0353, F=127.8, /
&RAMP ID='CONE-RAMP', T=158.0047, F=127.4, /
&RAMP ID='CONE-RAMP', T=158.9740, F=127.1, /
&RAMP ID='CONE-RAMP', T=159.9434, F=126.7, /
&RAMP ID='CONE-RAMP', T=160.9127, F=126.4, /
&RAMP ID='CONE-RAMP', T=161.8821, F=126.1, /
&RAMP ID='CONE-RAMP', T=162.8514, F=125.7, /
&RAMP ID='CONE-RAMP', T=163.8208, F=125.4, /
&RAMP ID='CONE-RAMP', T=164.7901, F=125.2, /
&RAMP ID='CONE-RAMP', T=165.7595, F=124.8, /
&RAMP ID='CONE-RAMP', T=166.7288, F=124.5, /
&RAMP ID='CONE-RAMP', T=167.6982, F=124.1, /
&RAMP ID='CONE-RAMP', T=168.6676, F=123.8, /
&RAMP ID='CONE-RAMP', T=169.6369, F=123.5, /
&RAMP ID='CONE-RAMP', T=170.6063, F=123.1, /
&RAMP ID='CONE-RAMP', T=171.5756, F=122.8, /
&RAMP ID='CONE-RAMP', T=172.5450, F=122.5, /
&RAMP ID='CONE-RAMP', T=173.5143, F=122.2, /
&RAMP ID='CONE-RAMP', T=174.4837, F=121.9, /
&RAMP ID='CONE-RAMP', T=175.4530, F=121.7, /
&RAMP ID='CONE-RAMP', T=176.4224, F=121.5, /
&RAMP ID='CONE-RAMP', T=177.3917, F=121.3, /
&RAMP ID='CONE-RAMP', T=178.3611, F=121.2, /
&RAMP ID='CONE-RAMP', T=179.3304, F=121.0, /
&RAMP ID='CONE-RAMP', T=180.2998, F=120.9, /
&RAMP ID='CONE-RAMP', T=181.2692, F=120.8, /
&RAMP ID='CONE-RAMP', T=182.2385, F=120.7, /
&RAMP ID='CONE-RAMP', T=183.2079, F=120.5, /
&RAMP ID='CONE-RAMP', T=184.1772, F=120.3, /
&RAMP ID='CONE-RAMP', T=185.1466, F=120.2, /
&RAMP ID='CONE-RAMP', T=186.1159, F=119.9, /
&RAMP ID='CONE-RAMP', T=187.0853, F=119.6, /
&RAMP ID='CONE-RAMP', T=188.0546, F=119.4, /
&RAMP ID='CONE-RAMP', T=189.0240, F=119.0, /
&RAMP ID='CONE-RAMP', T=189.9933, F=118.7, /
&RAMP ID='CONE-RAMP', T=190.9627, F=118.4, /
&RAMP ID='CONE-RAMP', T=191.9320, F=118.1, /
&RAMP ID='CONE-RAMP', T=192.9014, F=117.8, /
&RAMP ID='CONE-RAMP', T=193.8708, F=117.5, /
&RAMP ID='CONE-RAMP', T=194.8401, F=117.1, /
&RAMP ID='CONE-RAMP', T=195.8095, F=116.8, /
&RAMP ID='CONE-RAMP', T=196.7788, F=116.6, /
&RAMP ID='CONE-RAMP', T=197.7482, F=116.3, /
&RAMP ID='CONE-RAMP', T=198.7175, F=116.0, /
&RAMP ID='CONE-RAMP', T=199.6869, F=115.8, /
&RAMP ID='CONE-RAMP', T=200.6562, F=115.5, /
&RAMP ID='CONE-RAMP', T=201.6256, F=115.3, /
&RAMP ID='CONE-RAMP', T=202.5949, F=115.0, /
&RAMP ID='CONE-RAMP', T=203.5643, F=114.8, /
&RAMP ID='CONE-RAMP', T=204.5336, F=114.6, /
&RAMP ID='CONE-RAMP', T=205.5030, F=114.3, /
&RAMP ID='CONE-RAMP', T=206.4724, F=114.1, /
&RAMP ID='CONE-RAMP', T=207.4417, F=113.9, /
&RAMP ID='CONE-RAMP', T=208.4111, F=113.7, /
&RAMP ID='CONE-RAMP', T=209.3804, F=113.6, /
&RAMP ID='CONE-RAMP', T=210.3498, F=113.5, /
&RAMP ID='CONE-RAMP', T=211.3191, F=113.3, /
&RAMP ID='CONE-RAMP', T=212.2885, F=113.3, /
&RAMP ID='CONE-RAMP', T=213.2578, F=113.2, /
&RAMP ID='CONE-RAMP', T=214.2272, F=113.1, /
&RAMP ID='CONE-RAMP', T=215.1965, F=113.0, /
&RAMP ID='CONE-RAMP', T=216.1659, F=112.9, /
&RAMP ID='CONE-RAMP', T=217.1352, F=112.8, /
&RAMP ID='CONE-RAMP', T=218.1046, F=112.7, /
&RAMP ID='CONE-RAMP', T=219.0740, F=112.6, /
&RAMP ID='CONE-RAMP', T=220.0433, F=112.4, /
&RAMP ID='CONE-RAMP', T=221.0127, F=112.2, /
&RAMP ID='CONE-RAMP', T=221.9820, F=112.1, /
&RAMP ID='CONE-RAMP', T=222.9514, F=112.0, /
&RAMP ID='CONE-RAMP', T=223.9207, F=111.9, /
&RAMP ID='CONE-RAMP', T=224.8901, F=111.8, /
&RAMP ID='CONE-RAMP', T=225.8594, F=111.8, /
&RAMP ID='CONE-RAMP', T=226.8288, F=111.8, /
&RAMP ID='CONE-RAMP', T=227.7981, F=111.8, /
&RAMP ID='CONE-RAMP', T=228.7675, F=111.8, /
&RAMP ID='CONE-RAMP', T=229.7368, F=111.7, /
&RAMP ID='CONE-RAMP', T=230.7062, F=111.6, /
&RAMP ID='CONE-RAMP', T=231.6755, F=111.6, /
&RAMP ID='CONE-RAMP', T=232.6449, F=111.5, /
&RAMP ID='CONE-RAMP', T=233.6143, F=111.3, /
&RAMP ID='CONE-RAMP', T=234.5836, F=111.2, /
&RAMP ID='CONE-RAMP', T=235.5530, F=111.0, /
&RAMP ID='CONE-RAMP', T=236.5223, F=110.8, /
&RAMP ID='CONE-RAMP', T=237.4917, F=110.5, /
&RAMP ID='CONE-RAMP', T=238.4610, F=110.3, /
&RAMP ID='CONE-RAMP', T=239.4304, F=110.0, /
&RAMP ID='CONE-RAMP', T=240.3997, F=109.8, /
&RAMP ID='CONE-RAMP', T=241.3691, F=109.6, /
&RAMP ID='CONE-RAMP', T=242.3384, F=109.3, /
&RAMP ID='CONE-RAMP', T=243.3078, F=109.1, /
&RAMP ID='CONE-RAMP', T=244.2771, F=108.8, /
&RAMP ID='CONE-RAMP', T=245.2465, F=108.5, /
&RAMP ID='CONE-RAMP', T=246.2159, F=108.3, /
&RAMP ID='CONE-RAMP', T=247.1852, F=108.0, /
&RAMP ID='CONE-RAMP', T=248.1546, F=107.8, /
&RAMP ID='CONE-RAMP', T=249.1239, F=107.6, /
&RAMP ID='CONE-RAMP', T=250.0933, F=107.3, /
&RAMP ID='CONE-RAMP', T=251.0626, F=107.1, /
&RAMP ID='CONE-RAMP', T=252.0320, F=106.9, /
&RAMP ID='CONE-RAMP', T=253.0013, F=106.8, /
&RAMP ID='CONE-RAMP', T=253.9707, F=106.7, /
&RAMP ID='CONE-RAMP', T=254.9400, F=106.5, /
&RAMP ID='CONE-RAMP', T=255.9094, F=106.4, /
&RAMP ID='CONE-RAMP', T=256.8787, F=106.3, /
&RAMP ID='CONE-RAMP', T=257.8481, F=106.0, /
&RAMP ID='CONE-RAMP', T=258.8175, F=105.9, /
&RAMP ID='CONE-RAMP', T=259.7868, F=105.7, /
&RAMP ID='CONE-RAMP', T=260.7562, F=105.5, /
&RAMP ID='CONE-RAMP', T=261.7255, F=105.3, /
&RAMP ID='CONE-RAMP', T=262.6949, F=105.0, /
&RAMP ID='CONE-RAMP', T=263.6642, F=104.7, /
&RAMP ID='CONE-RAMP', T=264.6336, F=104.4, /
&RAMP ID='CONE-RAMP', T=265.6029, F=104.1, /
&RAMP ID='CONE-RAMP', T=266.5723, F=103.9, /
&RAMP ID='CONE-RAMP', T=267.5416, F=103.6, /
&RAMP ID='CONE-RAMP', T=268.5110, F=103.4, /
&RAMP ID='CONE-RAMP', T=269.4803, F=103.1, /
&RAMP ID='CONE-RAMP', T=270.4497, F=102.9, /
&RAMP ID='CONE-RAMP', T=271.4191, F=102.8, /
&RAMP ID='CONE-RAMP', T=272.3884, F=102.6, /
&RAMP ID='CONE-RAMP', T=273.3578, F=102.4, /
&RAMP ID='CONE-RAMP', T=274.3271, F=102.3, /
&RAMP ID='CONE-RAMP', T=275.2965, F=102.1, /
&RAMP ID='CONE-RAMP', T=276.2658, F=102.0, /
&RAMP ID='CONE-RAMP', T=277.2352, F=101.7, /
&RAMP ID='CONE-RAMP', T=278.2045, F=101.6, /
&RAMP ID='CONE-RAMP', T=279.1739, F=101.4, /
&RAMP ID='CONE-RAMP', T=280.1432, F=101.2, /
&RAMP ID='CONE-RAMP', T=281.1126, F=101.0, /
&RAMP ID='CONE-RAMP', T=282.0819, F=100.8, /
&RAMP ID='CONE-RAMP', T=283.0513, F=100.6, /
&RAMP ID='CONE-RAMP', T=284.0207, F=100.4, /
&RAMP ID='CONE-RAMP', T=284.9900, F=100.3, /
&RAMP ID='CONE-RAMP', T=285.9594, F=100.1, /
&RAMP ID='CONE-RAMP', T=286.9287, F=99.9, /
&RAMP ID='CONE-RAMP', T=287.8981, F=99.8, /
&RAMP ID='CONE-RAMP', T=288.8674, F=99.7, /
&RAMP ID='CONE-RAMP', T=289.8368, F=99.6, /
&RAMP ID='CONE-RAMP', T=290.8061, F=99.5, /
&RAMP ID='CONE-RAMP', T=291.7755, F=99.5, /
&RAMP ID='CONE-RAMP', T=292.7448, F=99.4, /
&RAMP ID='CONE-RAMP', T=293.7142, F=99.3, /
&RAMP ID='CONE-RAMP', T=294.6835, F=99.2, /
&RAMP ID='CONE-RAMP', T=295.6529, F=99.1, /
&RAMP ID='CONE-RAMP', T=296.6223, F=99.0, /
&RAMP ID='CONE-RAMP', T=297.5916, F=98.9, /
&RAMP ID='CONE-RAMP', T=298.5610, F=98.7, /
&RAMP ID='CONE-RAMP', T=299.5303, F=98.4, /
&RAMP ID='CONE-RAMP', T=300.4997, F=98.2, /
&RAMP ID='CONE-RAMP', T=301.4690, F=97.9, /
&RAMP ID='CONE-RAMP', T=302.4384, F=97.5, /
&RAMP ID='CONE-RAMP', T=303.4077, F=97.2, /
&RAMP ID='CONE-RAMP', T=304.3771, F=96.8, /
&RAMP ID='CONE-RAMP', T=305.3464, F=96.6, /
&RAMP ID='CONE-RAMP', T=306.3158, F=96.2, /
&RAMP ID='CONE-RAMP', T=307.2851, F=95.9, /
&RAMP ID='CONE-RAMP', T=308.2545, F=95.6, /
&RAMP ID='CONE-RAMP', T=309.2239, F=95.4, /
&RAMP ID='CONE-RAMP', T=310.1932, F=95.2, /
&RAMP ID='CONE-RAMP', T=311.1626, F=94.9, /
&RAMP ID='CONE-RAMP', T=312.1319, F=94.8, /
&RAMP ID='CONE-RAMP', T=313.1013, F=94.6, /
&RAMP ID='CONE-RAMP', T=314.0706, F=94.4, /
&RAMP ID='CONE-RAMP', T=315.0400, F=94.2, /
&RAMP ID='CONE-RAMP', T=316.0093, F=94.0, /
&RAMP ID='CONE-RAMP', T=316.9787, F=93.8, /
&RAMP ID='CONE-RAMP', T=317.9480, F=93.6, /
&RAMP ID='CONE-RAMP', T=318.9174, F=93.4, /
&RAMP ID='CONE-RAMP', T=319.8867, F=93.3, /
&RAMP ID='CONE-RAMP', T=320.8561, F=93.1, /
&RAMP ID='CONE-RAMP', T=321.8254, F=93.0, /
&RAMP ID='CONE-RAMP', T=322.7948, F=92.8, /
&RAMP ID='CONE-RAMP', T=323.7642, F=92.7, /
&RAMP ID='CONE-RAMP', T=324.7335, F=92.5, /
&RAMP ID='CONE-RAMP', T=325.7029, F=92.3, /
&RAMP ID='CONE-RAMP', T=326.6722, F=92.1, /
&RAMP ID='CONE-RAMP', T=327.6416, F=91.9, /
&RAMP ID='CONE-RAMP', T=328.6109, F=91.6, /
&RAMP ID='CONE-RAMP', T=329.5803, F=91.3, /
&RAMP ID='CONE-RAMP', T=330.5496, F=91.1, /
&RAMP ID='CONE-RAMP', T=331.5190, F=90.9, /
&RAMP ID='CONE-RAMP', T=332.4883, F=90.6, /
&RAMP ID='CONE-RAMP', T=333.4577, F=90.3, /
&RAMP ID='CONE-RAMP', T=334.4270, F=90.1, /
&RAMP ID='CONE-RAMP', T=335.3964, F=89.9, /
&RAMP ID='CONE-RAMP', T=336.3658, F=89.7, /
&RAMP ID='CONE-RAMP', T=337.3351, F=89.5, /
&RAMP ID='CONE-RAMP', T=338.3045, F=89.3, /
&RAMP ID='CONE-RAMP', T=339.2738, F=89.1, /
&RAMP ID='CONE-RAMP', T=340.2432, F=88.9, /
&RAMP ID='CONE-RAMP', T=341.2125, F=88.6, /
&RAMP ID='CONE-RAMP', T=342.1819, F=88.3, /
&RAMP ID='CONE-RAMP', T=343.1512, F=88.1, /
&RAMP ID='CONE-RAMP', T=344.1206, F=87.8, /
&RAMP ID='CONE-RAMP', T=345.0899, F=87.5, /
&RAMP ID='CONE-RAMP', T=346.0593, F=87.2, /
&RAMP ID='CONE-RAMP', T=347.0286, F=86.9, /
&RAMP ID='CONE-RAMP', T=347.9980, F=86.7, /
&RAMP ID='CONE-RAMP', T=348.9674, F=86.5, /
&RAMP ID='CONE-RAMP', T=349.9367, F=86.2, /
&RAMP ID='CONE-RAMP', T=350.9061, F=86.0, /
&RAMP ID='CONE-RAMP', T=351.8754, F=85.9, /
&RAMP ID='CONE-RAMP', T=352.8448, F=85.7, /
&RAMP ID='CONE-RAMP', T=353.8141, F=85.5, /
&RAMP ID='CONE-RAMP', T=354.7835, F=85.4, /
&RAMP ID='CONE-RAMP', T=355.7528, F=85.3, /
&RAMP ID='CONE-RAMP', T=356.7222, F=85.2, /
&RAMP ID='CONE-RAMP', T=357.6915, F=85.1, /
&RAMP ID='CONE-RAMP', T=358.6609, F=85.0, /
&RAMP ID='CONE-RAMP', T=359.6302, F=84.9, /
&RAMP ID='CONE-RAMP', T=360.5996, F=84.8, /
&RAMP ID='CONE-RAMP', T=361.5690, F=84.8, /
&RAMP ID='CONE-RAMP', T=362.5383, F=84.7, /
&RAMP ID='CONE-RAMP', T=363.5077, F=84.6, /
&RAMP ID='CONE-RAMP', T=364.4770, F=84.5, /
&RAMP ID='CONE-RAMP', T=365.4464, F=84.4, /
&RAMP ID='CONE-RAMP', T=366.4157, F=84.2, /
&RAMP ID='CONE-RAMP', T=367.3851, F=84.1, /
&RAMP ID='CONE-RAMP', T=368.3544, F=83.9, /
&RAMP ID='CONE-RAMP', T=369.3238, F=83.7, /
&RAMP ID='CONE-RAMP', T=370.2931, F=83.6, /
&RAMP ID='CONE-RAMP', T=371.2625, F=83.4, /
&RAMP ID='CONE-RAMP', T=372.2318, F=83.2, /
&RAMP ID='CONE-RAMP', T=373.2012, F=83.0, /
&RAMP ID='CONE-RAMP', T=374.1706, F=82.8, /
&RAMP ID='CONE-RAMP', T=375.1399, F=82.6, /
&RAMP ID='CONE-RAMP', T=376.1093, F=82.4, /
&RAMP ID='CONE-RAMP', T=377.0786, F=82.2, /
&RAMP ID='CONE-RAMP', T=378.0480, F=82.0, /
&RAMP ID='CONE-RAMP', T=379.0173, F=81.8, /
&RAMP ID='CONE-RAMP', T=379.9867, F=81.5, /
&RAMP ID='CONE-RAMP', T=380.9560, F=81.3, /
&RAMP ID='CONE-RAMP', T=381.9254, F=81.0, /
&RAMP ID='CONE-RAMP', T=382.8947, F=80.8, /
&RAMP ID='CONE-RAMP', T=383.8641, F=80.5, /
&RAMP ID='CONE-RAMP', T=384.8334, F=80.3, /
&RAMP ID='CONE-RAMP', T=385.8028, F=80.2, /
&RAMP ID='CONE-RAMP', T=386.7722, F=80.0, /
&RAMP ID='CONE-RAMP', T=387.7415, F=79.9, /
&RAMP ID='CONE-RAMP', T=388.7109, F=79.8, /
&RAMP ID='CONE-RAMP', T=389.6802, F=79.7, /
&RAMP ID='CONE-RAMP', T=390.6496, F=79.6, /
&RAMP ID='CONE-RAMP', T=391.6189, F=79.4, /
&RAMP ID='CONE-RAMP', T=392.5883, F=79.3, /
&RAMP ID='CONE-RAMP', T=393.5576, F=79.1, /
&RAMP ID='CONE-RAMP', T=394.5270, F=79.0, /
&RAMP ID='CONE-RAMP', T=395.4963, F=78.9, /
&RAMP ID='CONE-RAMP', T=396.4657, F=78.8, /
&RAMP ID='CONE-RAMP', T=397.4350, F=78.7, /
&RAMP ID='CONE-RAMP', T=398.4044, F=78.6, /
&RAMP ID='CONE-RAMP', T=399.3738, F=78.5, /
&RAMP ID='CONE-RAMP', T=400.3431, F=78.4, /
&RAMP ID='CONE-RAMP', T=401.3125, F=78.4, /
&RAMP ID='CONE-RAMP', T=402.2818, F=78.4, /
&RAMP ID='CONE-RAMP', T=403.2512, F=78.4, /
&RAMP ID='CONE-RAMP', T=404.2205, F=78.4, /
&RAMP ID='CONE-RAMP', T=405.1899, F=78.4, /
&RAMP ID='CONE-RAMP', T=406.1592, F=78.4, /
&RAMP ID='CONE-RAMP', T=407.1286, F=78.4, /
&RAMP ID='CONE-RAMP', T=408.0979, F=78.4, /
&RAMP ID='CONE-RAMP', T=409.0673, F=78.4, /
&RAMP ID='CONE-RAMP', T=410.0366, F=78.4, /
&RAMP ID='CONE-RAMP', T=411.0060, F=78.4, /
&RAMP ID='CONE-RAMP', T=411.9753, F=78.4, /
&RAMP ID='CONE-RAMP', T=412.9447, F=78.3, /
&RAMP ID='CONE-RAMP', T=413.9141, F=78.3, /
&RAMP ID='CONE-RAMP', T=414.8834, F=78.3, /
&RAMP ID='CONE-RAMP', T=415.8528, F=78.3, /
&RAMP ID='CONE-RAMP', T=416.8221, F=78.2, /
&RAMP ID='CONE-RAMP', T=417.7915, F=78.1, /
&RAMP ID='CONE-RAMP', T=418.7608, F=78.0, /
&RAMP ID='CONE-RAMP', T=419.7302, F=77.9, /
&RAMP ID='CONE-RAMP', T=420.6995, F=77.8, /
&RAMP ID='CONE-RAMP', T=421.6689, F=77.7, /
&RAMP ID='CONE-RAMP', T=422.6382, F=77.6, /
&RAMP ID='CONE-RAMP', T=423.6076, F=77.5, /
&RAMP ID='CONE-RAMP', T=424.5769, F=77.4, /
&RAMP ID='CONE-RAMP', T=425.5463, F=77.3, /
&RAMP ID='CONE-RAMP', T=426.5157, F=77.2, /
&RAMP ID='CONE-RAMP', T=427.4850, F=77.1, /
&RAMP ID='CONE-RAMP', T=428.4544, F=77.0, /
&RAMP ID='CONE-RAMP', T=429.4237, F=77.0, /
&RAMP ID='CONE-RAMP', T=430.3931, F=76.9, /
&RAMP ID='CONE-RAMP', T=431.3624, F=76.8, /
&RAMP ID='CONE-RAMP', T=432.3318, F=76.7, /
&RAMP ID='CONE-RAMP', T=433.3011, F=76.7, /
&RAMP ID='CONE-RAMP', T=434.2705, F=76.5, /
&RAMP ID='CONE-RAMP', T=435.2398, F=76.4, /
&RAMP ID='CONE-RAMP', T=436.2092, F=76.3, /
&RAMP ID='CONE-RAMP', T=437.1785, F=76.2, /
&RAMP ID='CONE-RAMP', T=438.1479, F=76.1, /
&RAMP ID='CONE-RAMP', T=439.1173, F=76.0, /
&RAMP ID='CONE-RAMP', T=440.0866, F=76.0, /
&RAMP ID='CONE-RAMP', T=441.0560, F=75.9, /
&RAMP ID='CONE-RAMP', T=442.0253, F=75.8, /
&RAMP ID='CONE-RAMP', T=442.9947, F=75.8, /
&RAMP ID='CONE-RAMP', T=443.9640, F=75.7, /
&RAMP ID='CONE-RAMP', T=444.9334, F=75.7, /
&RAMP ID='CONE-RAMP', T=445.9027, F=75.7, /
&RAMP ID='CONE-RAMP', T=446.8721, F=75.7, /
&RAMP ID='CONE-RAMP', T=447.8414, F=75.7, /
&RAMP ID='CONE-RAMP', T=448.8108, F=75.7, /
&RAMP ID='CONE-RAMP', T=449.7801, F=75.7, /
&RAMP ID='CONE-RAMP', T=450.7495, F=75.6, /
&RAMP ID='CONE-RAMP', T=451.7189, F=75.7, /
&RAMP ID='CONE-RAMP', T=452.6882, F=75.6, /
&RAMP ID='CONE-RAMP', T=453.6576, F=75.7, /
&RAMP ID='CONE-RAMP', T=454.6269, F=75.7, /
&RAMP ID='CONE-RAMP', T=455.5963, F=75.7, /
&RAMP ID='CONE-RAMP', T=456.5656, F=75.7, /
&RAMP ID='CONE-RAMP', T=457.5350, F=75.7, /
&RAMP ID='CONE-RAMP', T=458.5043, F=75.7, /
&RAMP ID='CONE-RAMP', T=459.4737, F=75.7, /
&RAMP ID='CONE-RAMP', T=460.4430, F=75.7, /
&RAMP ID='CONE-RAMP', T=461.4124, F=75.6, /
&RAMP ID='CONE-RAMP', T=462.3817, F=75.5, /
&RAMP ID='CONE-RAMP', T=463.3511, F=75.5, /
&RAMP ID='CONE-RAMP', T=464.3205, F=75.5, /
&RAMP ID='CONE-RAMP', T=465.2898, F=75.5, /
&RAMP ID='CONE-RAMP', T=466.2592, F=75.5, /
&RAMP ID='CONE-RAMP', T=467.2285, F=75.4, /
&RAMP ID='CONE-RAMP', T=468.1979, F=75.4, /
&RAMP ID='CONE-RAMP', T=469.1672, F=75.4, /
&RAMP ID='CONE-RAMP', T=470.1366, F=75.4, /
&RAMP ID='CONE-RAMP', T=471.1059, F=75.4, /
&RAMP ID='CONE-RAMP', T=472.0753, F=75.4, /
&RAMP ID='CONE-RAMP', T=473.0446, F=75.4, /
&RAMP ID='CONE-RAMP', T=474.0140, F=75.5, /
&RAMP ID='CONE-RAMP', T=474.9833, F=75.6, /
&RAMP ID='CONE-RAMP', T=475.9527, F=75.7, /
&RAMP ID='CONE-RAMP', T=476.9221, F=75.8, /
&RAMP ID='CONE-RAMP', T=477.8914, F=75.8, /
&RAMP ID='CONE-RAMP', T=478.8608, F=75.9, /
&RAMP ID='CONE-RAMP', T=479.8301, F=76.0, /
&RAMP ID='CONE-RAMP', T=480.7995, F=76.1, /
&RAMP ID='CONE-RAMP', T=481.7688, F=76.1, /
&RAMP ID='CONE-RAMP', T=482.7382, F=76.2, /
&RAMP ID='CONE-RAMP', T=483.7075, F=76.3, /
&RAMP ID='CONE-RAMP', T=484.6769, F=76.3, /
&RAMP ID='CONE-RAMP', T=485.6462, F=76.3, /
&RAMP ID='CONE-RAMP', T=486.6156, F=76.4, /
&RAMP ID='CONE-RAMP', T=487.5849, F=76.4, /
&RAMP ID='CONE-RAMP', T=488.5543, F=76.4, /
&RAMP ID='CONE-RAMP', T=489.5237, F=76.5, /
&RAMP ID='CONE-RAMP', T=490.4930, F=76.5, /
&RAMP ID='CONE-RAMP', T=491.4624, F=76.6, /
&RAMP ID='CONE-RAMP', T=492.4317, F=76.6, /
&RAMP ID='CONE-RAMP', T=493.4011, F=76.6, /
&RAMP ID='CONE-RAMP', T=494.3704, F=76.5, /
&RAMP ID='CONE-RAMP', T=495.3398, F=76.5, /
&RAMP ID='CONE-RAMP', T=496.3091, F=76.5, /
&RAMP ID='CONE-RAMP', T=497.2785, F=76.4, /
&RAMP ID='CONE-RAMP', T=498.2478, F=76.4, /
&RAMP ID='CONE-RAMP', T=499.2172, F=76.3, /
&RAMP ID='CONE-RAMP', T=500.1865, F=76.3, /
&RAMP ID='CONE-RAMP', T=501.1559, F=76.3, /
&RAMP ID='CONE-RAMP', T=502.1252, F=76.3, /
&RAMP ID='CONE-RAMP', T=503.0946, F=76.4, /
&RAMP ID='CONE-RAMP', T=504.0640, F=76.5, /
&RAMP ID='CONE-RAMP', T=505.0333, F=76.6, /
&RAMP ID='CONE-RAMP', T=506.0027, F=76.7, /
&RAMP ID='CONE-RAMP', T=506.9720, F=76.8, /
&RAMP ID='CONE-RAMP', T=507.9414, F=77.0, /
&RAMP ID='CONE-RAMP', T=508.9107, F=77.1, /
&RAMP ID='CONE-RAMP', T=509.8801, F=77.3, /
&RAMP ID='CONE-RAMP', T=510.8494, F=77.5, /
&RAMP ID='CONE-RAMP', T=511.8188, F=77.7, /
&RAMP ID='CONE-RAMP', T=512.7881, F=77.8, /
&RAMP ID='CONE-RAMP', T=513.7575, F=77.8, /
&RAMP ID='CONE-RAMP', T=514.7268, F=77.9, /
&RAMP ID='CONE-RAMP', T=515.6962, F=77.9, /
&RAMP ID='CONE-RAMP', T=516.6656, F=78.0, /
&RAMP ID='CONE-RAMP', T=517.6349, F=78.0, /
&RAMP ID='CONE-RAMP', T=518.6043, F=77.9, /
&RAMP ID='CONE-RAMP', T=519.5736, F=77.9, /
&RAMP ID='CONE-RAMP', T=520.5430, F=77.8, /
&RAMP ID='CONE-RAMP', T=521.5123, F=77.8, /
&RAMP ID='CONE-RAMP', T=522.4817, F=77.7, /
&RAMP ID='CONE-RAMP', T=523.4510, F=77.7, /
&RAMP ID='CONE-RAMP', T=524.4204, F=77.7, /
&RAMP ID='CONE-RAMP', T=525.3897, F=77.7, /
&RAMP ID='CONE-RAMP', T=526.3591, F=77.7, /
&RAMP ID='CONE-RAMP', T=527.3284, F=77.7, /
&RAMP ID='CONE-RAMP', T=528.2978, F=77.8, /
&RAMP ID='CONE-RAMP', T=529.2672, F=77.9, /
&RAMP ID='CONE-RAMP', T=530.2365, F=78.0, /
&RAMP ID='CONE-RAMP', T=531.2059, F=78.1, /
&RAMP ID='CONE-RAMP', T=532.1752, F=78.1, /
&RAMP ID='CONE-RAMP', T=533.1446, F=78.2, /
&RAMP ID='CONE-RAMP', T=534.1139, F=78.3, /
&RAMP ID='CONE-RAMP', T=535.0833, F=78.4, /
&RAMP ID='CONE-RAMP', T=536.0526, F=78.5, /
&RAMP ID='CONE-RAMP', T=537.0220, F=78.5, /
&RAMP ID='CONE-RAMP', T=537.9913, F=78.5, /
&RAMP ID='CONE-RAMP', T=538.9607, F=78.5, /
&RAMP ID='CONE-RAMP', T=539.9300, F=78.5, /
&RAMP ID='CONE-RAMP', T=540.8994, F=78.6, /
&RAMP ID='CONE-RAMP', T=541.8688, F=78.7, /
&RAMP ID='CONE-RAMP', T=542.8381, F=78.8, /
&RAMP ID='CONE-RAMP', T=543.8075, F=78.9, /
&RAMP ID='CONE-RAMP', T=544.7768, F=79.0, /
&RAMP ID='CONE-RAMP', T=545.7462, F=79.1, /
&RAMP ID='CONE-RAMP', T=546.7155, F=79.2, /
&RAMP ID='CONE-RAMP', T=547.6849, F=79.3, /
&RAMP ID='CONE-RAMP', T=548.6542, F=79.4, /
&RAMP ID='CONE-RAMP', T=549.6236, F=79.5, /
&RAMP ID='CONE-RAMP', T=550.5929, F=79.6, /
&RAMP ID='CONE-RAMP', T=551.5623, F=79.7, /
&RAMP ID='CONE-RAMP', T=552.5316, F=79.8, /
&RAMP ID='CONE-RAMP', T=553.5010, F=79.8, /
&RAMP ID='CONE-RAMP', T=554.4704, F=79.9, /
&RAMP ID='CONE-RAMP', T=555.4397, F=80.0, /
&RAMP ID='CONE-RAMP', T=556.4091, F=80.0, /
&RAMP ID='CONE-RAMP', T=557.3784, F=80.1, /
&RAMP ID='CONE-RAMP', T=558.3478, F=80.2, /
&RAMP ID='CONE-RAMP', T=559.3171, F=80.2, /
&RAMP ID='CONE-RAMP', T=560.2865, F=80.3, /
&RAMP ID='CONE-RAMP', T=561.2558, F=80.4, /
&RAMP ID='CONE-RAMP', T=562.2252, F=80.5, /
&RAMP ID='CONE-RAMP', T=563.1945, F=80.7, /
&RAMP ID='CONE-RAMP', T=564.1639, F=80.8, /
&RAMP ID='CONE-RAMP', T=565.1332, F=80.9, /
&RAMP ID='CONE-RAMP', T=566.1026, F=81.1, /
&RAMP ID='CONE-RAMP', T=567.0720, F=81.2, /
&RAMP ID='CONE-RAMP', T=568.0413, F=81.3, /
&RAMP ID='CONE-RAMP', T=569.0107, F=81.5, /
&RAMP ID='CONE-RAMP', T=569.9800, F=81.5, /
&RAMP ID='CONE-RAMP', T=570.9494, F=81.6, /
&RAMP ID='CONE-RAMP', T=571.9187, F=81.6, /
&RAMP ID='CONE-RAMP', T=572.8881, F=81.6, /
&RAMP ID='CONE-RAMP', T=573.8574, F=81.7, /
&RAMP ID='CONE-RAMP', T=574.8268, F=81.7, /
&RAMP ID='CONE-RAMP', T=575.7961, F=81.7, /
&RAMP ID='CONE-RAMP', T=576.7655, F=81.8, /
&RAMP ID='CONE-RAMP', T=577.7348, F=81.8, /
&RAMP ID='CONE-RAMP', T=578.7042, F=81.8, /
&RAMP ID='CONE-RAMP', T=579.6736, F=81.9, /
&RAMP ID='CONE-RAMP', T=580.6429, F=82.1, /
&RAMP ID='CONE-RAMP', T=581.6123, F=82.2, /
&RAMP ID='CONE-RAMP', T=582.5816, F=82.4, /
&RAMP ID='CONE-RAMP', T=583.5510, F=82.5, /
&RAMP ID='CONE-RAMP', T=584.5203, F=82.7, /
&RAMP ID='CONE-RAMP', T=585.4897, F=82.8, /
&RAMP ID='CONE-RAMP', T=586.4590, F=83.0, /
&RAMP ID='CONE-RAMP', T=587.4284, F=83.2, /
&RAMP ID='CONE-RAMP', T=588.3977, F=83.4, /
&RAMP ID='CONE-RAMP', T=589.3671, F=83.6, /
&RAMP ID='CONE-RAMP', T=590.3364, F=83.8, /
&RAMP ID='CONE-RAMP', T=591.3058, F=83.9, /
&RAMP ID='CONE-RAMP', T=592.2751, F=84.0, /
&RAMP ID='CONE-RAMP', T=593.2445, F=84.1, /
&RAMP ID='CONE-RAMP', T=594.2139, F=84.3, /
&RAMP ID='CONE-RAMP', T=595.1832, F=84.4, /
&RAMP ID='CONE-RAMP', T=596.1526, F=84.4, /
&RAMP ID='CONE-RAMP', T=597.1219, F=84.5, /
&RAMP ID='CONE-RAMP', T=598.0913, F=84.5, /
&RAMP ID='CONE-RAMP', T=599.0606, F=84.5, /
&RAMP ID='CONE-RAMP', T=600.0300, F=84.6, /
&RAMP ID='CONE-RAMP', T=600.9993, F=84.6, /
&RAMP ID='CONE-RAMP', T=601.9687, F=84.7, /
&RAMP ID='CONE-RAMP', T=602.9380, F=84.8, /
&RAMP ID='CONE-RAMP', T=603.9074, F=84.8, /
&RAMP ID='CONE-RAMP', T=604.8767, F=84.9, /
&RAMP ID='CONE-RAMP', T=605.8461, F=85.0, /
&RAMP ID='CONE-RAMP', T=606.8155, F=85.1, /
&RAMP ID='CONE-RAMP', T=607.7848, F=85.2, /
&RAMP ID='CONE-RAMP', T=608.7542, F=85.3, /
&RAMP ID='CONE-RAMP', T=609.7235, F=85.4, /
&RAMP ID='CONE-RAMP', T=610.6929, F=85.6, /
&RAMP ID='CONE-RAMP', T=611.6622, F=85.7, /
&RAMP ID='CONE-RAMP', T=612.6316, F=85.8, /
&RAMP ID='CONE-RAMP', T=613.6009, F=85.9, /
&RAMP ID='CONE-RAMP', T=614.5703, F=86.0, /
&RAMP ID='CONE-RAMP', T=615.5396, F=86.1, /
&RAMP ID='CONE-RAMP', T=616.5090, F=86.2, /
&RAMP ID='CONE-RAMP', T=617.4783, F=86.3, /
&RAMP ID='CONE-RAMP', T=618.4477, F=86.4, /
&RAMP ID='CONE-RAMP', T=619.4171, F=86.5, /
&RAMP ID='CONE-RAMP', T=620.3864, F=86.7, /
&RAMP ID='CONE-RAMP', T=621.3558, F=86.8, /
&RAMP ID='CONE-RAMP', T=622.3251, F=86.9, /
&RAMP ID='CONE-RAMP', T=623.2945, F=87.0, /
&RAMP ID='CONE-RAMP', T=624.2638, F=87.1, /
&RAMP ID='CONE-RAMP', T=625.2332, F=87.3, /
&RAMP ID='CONE-RAMP', T=626.2025, F=87.4, /
&RAMP ID='CONE-RAMP', T=627.1719, F=87.6, /
&RAMP ID='CONE-RAMP', T=628.1412, F=87.7, /
&RAMP ID='CONE-RAMP', T=629.1106, F=87.9, /
&RAMP ID='CONE-RAMP', T=630.0799, F=88.0, /
&RAMP ID='CONE-RAMP', T=631.0493, F=88.1, /
&RAMP ID='CONE-RAMP', T=632.0187, F=88.3, /
&RAMP ID='CONE-RAMP', T=632.9880, F=88.4, /
&RAMP ID='CONE-RAMP', T=633.9574, F=88.6, /
&RAMP ID='CONE-RAMP', T=634.9267, F=88.7, /
&RAMP ID='CONE-RAMP', T=635.8961, F=88.8, /
&RAMP ID='CONE-RAMP', T=636.8654, F=88.8, /
&RAMP ID='CONE-RAMP', T=637.8348, F=88.9, /
&RAMP ID='CONE-RAMP', T=638.8041, F=89.0, /
&RAMP ID='CONE-RAMP', T=639.7735, F=89.1, /
&RAMP ID='CONE-RAMP', T=640.7428, F=89.2, /
&RAMP ID='CONE-RAMP', T=641.7122, F=89.4, /
&RAMP ID='CONE-RAMP', T=642.6815, F=89.5, /
&RAMP ID='CONE-RAMP', T=643.6509, F=89.7, /
&RAMP ID='CONE-RAMP', T=644.6203, F=89.9, /
&RAMP ID='CONE-RAMP', T=645.5896, F=90.0, /