&HEAD CHID='FSRI_Eucalyptus_Flooring', /
&TIME DT=1., T_END=20000.0 /
&DUMP DT_CTRL=1.0, DT_DEVC=1.0, DT_HRR=1.0, SIG_FIGS=4, SIG_FIGS_EXP=2, /
&MISC SOLID_PHASE_ONLY=.TRUE., TMPA=27., /
&MESH ID='MESH', IJK=3,3,3, XB=0.,0.3,0.,0.3,0.,0.3, /
&REAC ID='PROPANE', FUEL='PROPANE', /
&MATL ID='BACKING', CONDUCTIVITY=0.10, DENSITY=65., EMISSIVITY=0.9, SPECIFIC_HEAT=1.14, /
&MATL ID='SAMPLE', CONDUCTIVITY=0.1820, DENSITY=1025.0, EMISSIVITY=1.0000, SPECIFIC_HEAT=1673.0000, /
&RAMP ID='CONE-RAMP', T=0.0000, F=38.9, /
&RAMP ID='CONE-RAMP', T=1.8246, F=73.9, /
&RAMP ID='CONE-RAMP', T=3.6492, F=119.8, /
&RAMP ID='CONE-RAMP', T=5.4738, F=175.2, /
&RAMP ID='CONE-RAMP', T=7.2984, F=236.5, /
&RAMP ID='CONE-RAMP', T=9.1231, F=295.1, /
&RAMP ID='CONE-RAMP', T=10.9477, F=345.8, /
&RAMP ID='CONE-RAMP', T=12.7723, F=386.1, /
&RAMP ID='CONE-RAMP', T=14.5969, F=414.3, /
&RAMP ID='CONE-RAMP', T=16.4215, F=428.8, /
&RAMP ID='CONE-RAMP', T=18.2461, F=429.4, /
&RAMP ID='CONE-RAMP', T=20.0707, F=419.8, /
&RAMP ID='CONE-RAMP', T=21.8953, F=403.0, /
&RAMP ID='CONE-RAMP', T=23.7199, F=383.6, /
&RAMP ID='CONE-RAMP', T=25.5446, F=362.8, /
&RAMP ID='CONE-RAMP', T=27.3692, F=342.6, /
&RAMP ID='CONE-RAMP', T=29.1938, F=323.4, /
&RAMP ID='CONE-RAMP', T=31.0184, F=306.1, /
&RAMP ID='CONE-RAMP', T=32.8430, F=289.6, /
&RAMP ID='CONE-RAMP', T=34.6676, F=273.9, /
&RAMP ID='CONE-RAMP', T=36.4922, F=259.3, /
&RAMP ID='CONE-RAMP', T=38.3168, F=246.2, /
&RAMP ID='CONE-RAMP', T=40.1414, F=234.3, /
&RAMP ID='CONE-RAMP', T=41.9661, F=223.6, /
&RAMP ID='CONE-RAMP', T=43.7907, F=214.5, /
&RAMP ID='CONE-RAMP', T=45.6153, F=206.8, /
&RAMP ID='CONE-RAMP', T=47.4399, F=200.2, /
&RAMP ID='CONE-RAMP', T=49.2645, F=194.3, /
&RAMP ID='CONE-RAMP', T=51.0891, F=189.5, /
&RAMP ID='CONE-RAMP', T=52.9137, F=185.4, /
&RAMP ID='CONE-RAMP', T=54.7383, F=181.7, /
&RAMP ID='CONE-RAMP', T=56.5629, F=178.5, /
&RAMP ID='CONE-RAMP', T=58.3876, F=175.7, /
&RAMP ID='CONE-RAMP', T=60.2122, F=173.3, /
&RAMP ID='CONE-RAMP', T=62.0368, F=170.8, /
&RAMP ID='CONE-RAMP', T=63.8614, F=168.6, /
&RAMP ID='CONE-RAMP', T=65.6860, F=166.6, /
&RAMP ID='CONE-RAMP', T=67.5106, F=164.8, /
&RAMP ID='CONE-RAMP', T=69.3352, F=163.1, /
&RAMP ID='CONE-RAMP', T=71.1598, F=161.4, /
&RAMP ID='CONE-RAMP', T=72.9844, F=160.0, /
&RAMP ID='CONE-RAMP', T=74.8091, F=158.6, /
&RAMP ID='CONE-RAMP', T=76.6337, F=157.1, /
&RAMP ID='CONE-RAMP', T=78.4583, F=155.6, /
&RAMP ID='CONE-RAMP', T=80.2829, F=154.1, /
&RAMP ID='CONE-RAMP', T=82.1075, F=152.6, /
&RAMP ID='CONE-RAMP', T=83.9321, F=150.9, /
&RAMP ID='CONE-RAMP', T=85.7567, F=149.4, /
&RAMP ID='CONE-RAMP', T=87.5813, F=148.0, /
&RAMP ID='CONE-RAMP', T=89.4059, F=146.8, /
&RAMP ID='CONE-RAMP', T=91.2306, F=145.8, /
&RAMP ID='CONE-RAMP', T=93.0552, F=144.9, /
&RAMP ID='CONE-RAMP', T=94.8798, F=144.2, /
&RAMP ID='CONE-RAMP', T=96.7044, F=143.4, /
&RAMP ID='CONE-RAMP', T=98.5290, F=142.7, /
&RAMP ID='CONE-RAMP', T=100.3536, F=142.0, /
&RAMP ID='CONE-RAMP', T=102.1782, F=141.1, /
&RAMP ID='CONE-RAMP', T=104.0028, F=140.2, /
&RAMP ID='CONE-RAMP', T=105.8274, F=139.3, /
&RAMP ID='CONE-RAMP', T=107.6521, F=138.5, /
&RAMP ID='CONE-RAMP', T=109.4767, F=137.7, /
&RAMP ID='CONE-RAMP', T=111.3013, F=137.1, /
&RAMP ID='CONE-RAMP', T=113.1259, F=136.5, /
&RAMP ID='CONE-RAMP', T=114.9505, F=136.0, /
&RAMP ID='CONE-RAMP', T=116.7751, F=135.5, /
&RAMP ID='CONE-RAMP', T=118.5997, F=134.7, /
&RAMP ID='CONE-RAMP', T=120.4243, F=133.9, /
&RAMP ID='CONE-RAMP', T=122.2489, F=132.9, /
&RAMP ID='CONE-RAMP', T=124.0736, F=131.8, /
&RAMP ID='CONE-RAMP', T=125.8982, F=130.6, /
&RAMP ID='CONE-RAMP', T=127.7228, F=129.6, /
&RAMP ID='CONE-RAMP', T=129.5474, F=128.7, /
&RAMP ID='CONE-RAMP', T=131.3720, F=127.8, /
&RAMP ID='CONE-RAMP', T=133.1966, F=127.2, /
&RAMP ID='CONE-RAMP', T=135.0212, F=126.6, /
&RAMP ID='CONE-RAMP', T=136.8458, F=126.2, /
&RAMP ID='CONE-RAMP', T=138.6704, F=125.7, /
&RAMP ID='CONE-RAMP', T=140.4950, F=125.2, /
&RAMP ID='CONE-RAMP', T=142.3197, F=124.6, /
&RAMP ID='CONE-RAMP', T=144.1443, F=124.0, /
&RAMP ID='CONE-RAMP', T=145.9689, F=123.2, /
&RAMP ID='CONE-RAMP', T=147.7935, F=122.4, /
&RAMP ID='CONE-RAMP', T=149.6181, F=121.6, /
&RAMP ID='CONE-RAMP', T=151.4427, F=120.9, /
&RAMP ID='CONE-RAMP', T=153.2673, F=120.0, /
&RAMP ID='CONE-RAMP', T=155.0919, F=119.4, /
&RAMP ID='CONE-RAMP', T=156.9165, F=118.9, /
&RAMP ID='CONE-RAMP', T=158.7412, F=118.4, /
&RAMP ID='CONE-RAMP', T=160.5658, F=117.9, /
&RAMP ID='CONE-RAMP', T=162.3904, F=117.5, /
&RAMP ID='CONE-RAMP', T=164.2150, F=117.2, /
&RAMP ID='CONE-RAMP', T=166.0396, F=116.9, /
&RAMP ID='CONE-RAMP', T=167.8642, F=116.4, /
&RAMP ID='CONE-RAMP', T=169.6888, F=116.1, /
&RAMP ID='CONE-RAMP', T=171.5134, F=115.8, /
&RAMP ID='CONE-RAMP', T=173.3380, F=115.4, /
&RAMP ID='CONE-RAMP', T=175.1627, F=115.0, /
&RAMP ID='CONE-RAMP', T=176.9873, F=114.6, /
&RAMP ID='CONE-RAMP', T=178.8119, F=114.2, /
&RAMP ID='CONE-RAMP', T=180.6365, F=113.7, /
&RAMP ID='CONE-RAMP', T=182.4611, F=113.3, /
&RAMP ID='CONE-RAMP', T=184.2857, F=113.0, /
&RAMP ID='CONE-RAMP', T=186.1103, F=112.7, /
&RAMP ID='CONE-RAMP', T=187.9349, F=112.4, /
&RAMP ID='CONE-RAMP', T=189.7595, F=112.0, /
&RAMP ID='CONE-RAMP', T=191.5842, F=111.6, /
&RAMP ID='CONE-RAMP', T=193.4088, F=111.0, /
&RAMP ID='CONE-RAMP', T=195.2334, F=110.5, /
&RAMP ID='CONE-RAMP', T=197.0580, F=109.9, /
&RAMP ID='CONE-RAMP', T=198.8826, F=109.4, /
&RAMP ID='CONE-RAMP', T=200.7072, F=108.9, /
&RAMP ID='CONE-RAMP', T=202.5318, F=108.5, /
&RAMP ID='CONE-RAMP', T=204.3564, F=108.2, /
&RAMP ID='CONE-RAMP', T=206.1810, F=107.9, /
&RAMP ID='CONE-RAMP', T=208.0057, F=107.8, /
&RAMP ID='CONE-RAMP', T=209.8303, F=107.7, /
&RAMP ID='CONE-RAMP', T=211.6549, F=107.6, /
&RAMP ID='CONE-RAMP', T=213.4795, F=107.5, /
&RAMP ID='CONE-RAMP', T=215.3041, F=107.4, /
&RAMP ID='CONE-RAMP', T=217.1287, F=107.3, /
&RAMP ID='CONE-RAMP', T=218.9533, F=107.1, /
&RAMP ID='CONE-RAMP', T=220.7779, F=106.9, /
&RAMP ID='CONE-RAMP', T=222.6025, F=106.8, /
&RAMP ID='CONE-RAMP', T=224.4272, F=106.7, /
&RAMP ID='CONE-RAMP', T=226.2518, F=106.8, /
&RAMP ID='CONE-RAMP', T=228.0764, F=106.8, /
&RAMP ID='CONE-RAMP', T=229.9010, F=106.6, /
&RAMP ID='CONE-RAMP', T=231.7256, F=106.4, /
&RAMP ID='CONE-RAMP', T=233.5502, F=106.2, /
&RAMP ID='CONE-RAMP', T=235.3748, F=105.9, /
&RAMP ID='CONE-RAMP', T=237.1994, F=105.5, /
&RAMP ID='CONE-RAMP', T=239.0240, F=105.3, /
&RAMP ID='CONE-RAMP', T=240.8487, F=105.3, /
&RAMP ID='CONE-RAMP', T=242.6733, F=105.3, /
&RAMP ID='CONE-RAMP', T=244.4979, F=105.2, /
&RAMP ID='CONE-RAMP', T=246.3225, F=105.2, /
&RAMP ID='CONE-RAMP', T=248.1471, F=105.2, /
&RAMP ID='CONE-RAMP', T=249.9717, F=105.0, /
&RAMP ID='CONE-RAMP', T=251.7963, F=104.9, /
&RAMP ID='CONE-RAMP', T=253.6209, F=104.8, /
&RAMP ID='CONE-RAMP', T=255.4455, F=104.6, /
&RAMP ID='CONE-RAMP', T=257.2702, F=104.5, /
&RAMP ID='CONE-RAMP', T=259.0948, F=104.4, /
&RAMP ID='CONE-RAMP', T=260.9194, F=104.3, /
&RAMP ID='CONE-RAMP', T=262.7440, F=104.1, /
&RAMP ID='CONE-RAMP', T=264.5686, F=103.9, /
&RAMP ID='CONE-RAMP', T=266.3932, F=103.6, /
&RAMP ID='CONE-RAMP', T=268.2178, F=103.4, /
&RAMP ID='CONE-RAMP', T=270.0424, F=103.1, /
&RAMP ID='CONE-RAMP', T=271.8670, F=102.7, /
&RAMP ID='CONE-RAMP', T=273.6917, F=102.5, /
&RAMP ID='CONE-RAMP', T=275.5163, F=102.2, /
&RAMP ID='CONE-RAMP', T=277.3409, F=102.0, /
&RAMP ID='CONE-RAMP', T=279.1655, F=101.8, /
&RAMP ID='CONE-RAMP', T=280.9901, F=101.7, /
&RAMP ID='CONE-RAMP', T=282.8147, F=101.7, /
&RAMP ID='CONE-RAMP', T=284.6393, F=101.9, /
&RAMP ID='CONE-RAMP', T=286.4639, F=102.1, /
&RAMP ID='CONE-RAMP', T=288.2885, F=102.3, /
&RAMP ID='CONE-RAMP', T=290.1132, F=102.4, /
&RAMP ID='CONE-RAMP', T=291.9378, F=102.4, /
&RAMP ID='CONE-RAMP', T=293.7624, F=102.5, /
&RAMP ID='CONE-RAMP', T=295.5870, F=102.5, /
&RAMP ID='CONE-RAMP', T=297.4116, F=102.4, /
&RAMP ID='CONE-RAMP', T=299.2362, F=102.3, /
&RAMP ID='CONE-RAMP', T=301.0608, F=102.4, /
&RAMP ID='CONE-RAMP', T=302.8854, F=102.2, /
&RAMP ID='CONE-RAMP', T=304.7100, F=102.0, /
&RAMP ID='CONE-RAMP', T=306.5347, F=101.8, /
&RAMP ID='CONE-RAMP', T=308.3593, F=101.6, /
&RAMP ID='CONE-RAMP', T=310.1839, F=101.5, /
&RAMP ID='CONE-RAMP', T=312.0085, F=101.3, /
&RAMP ID='CONE-RAMP', T=313.8331, F=101.2, /
&RAMP ID='CONE-RAMP', T=315.6577, F=101.2, /
&RAMP ID='CONE-RAMP', T=317.4823, F=101.1, /
&RAMP ID='CONE-RAMP', T=319.3069, F=101.1, /
&RAMP ID='CONE-RAMP', T=321.1315, F=101.1, /
&RAMP ID='CONE-RAMP', T=322.9562, F=101.0, /
&RAMP ID='CONE-RAMP', T=324.7808, F=101.0, /
&RAMP ID='CONE-RAMP', T=326.6054, F=101.0, /
&RAMP ID='CONE-RAMP', T=328.4300, F=101.0, /
&RAMP ID='CONE-RAMP', T=330.2546, F=101.0, /
&RAMP ID='CONE-RAMP', T=332.0792, F=100.9, /
&RAMP ID='CONE-RAMP', T=333.9038, F=100.8, /
&RAMP ID='CONE-RAMP', T=335.7284, F=100.8, /
&RAMP ID='CONE-RAMP', T=337.5530, F=100.6, /
&RAMP ID='CONE-RAMP', T=339.3777, F=100.5, /
&RAMP ID='CONE-RAMP', T=341.2023, F=100.5, /
&RAMP ID='CONE-RAMP', T=343.0269, F=100.6, /
&RAMP ID='CONE-RAMP', T=344.8515, F=100.8, /
&RAMP ID='CONE-RAMP', T=346.6761, F=100.8, /
&RAMP ID='CONE-RAMP', T=348.5007, F=100.9, /
&RAMP ID='CONE-RAMP', T=350.3253, F=100.9, /
&RAMP ID='CONE-RAMP', T=352.1499, F=100.9, /
&RAMP ID='CONE-RAMP', T=353.9745, F=100.8, /
&RAMP ID='CONE-RAMP', T=355.7992, F=100.6, /
&RAMP ID='CONE-RAMP', T=357.6238, F=100.5, /
&RAMP ID='CONE-RAMP', T=359.4484, F=100.3, /
&RAMP ID='CONE-RAMP', T=361.2730, F=100.1, /
&RAMP ID='CONE-RAMP', T=363.0976, F=99.9, /
&RAMP ID='CONE-RAMP', T=364.9222, F=99.6, /
&RAMP ID='CONE-RAMP', T=366.7468, F=99.3, /
&RAMP ID='CONE-RAMP', T=368.5714, F=99.1, /
&RAMP ID='CONE-RAMP', T=370.3960, F=99.0, /
&RAMP ID='CONE-RAMP', T=372.2207, F=98.8, /
&RAMP ID='CONE-RAMP', T=374.0453, F=98.8, /
&RAMP ID='CONE-RAMP', T=375.8699, F=98.8, /
&RAMP ID='CONE-RAMP', T=377.6945, F=98.8, /
&RAMP ID='CONE-RAMP', T=379.5191, F=98.6, /
&RAMP ID='CONE-RAMP', T=381.3437, F=98.4, /
&RAMP ID='CONE-RAMP', T=383.1683, F=98.2, /
&RAMP ID='CONE-RAMP', T=384.9929, F=98.0, /
&RAMP ID='CONE-RAMP', T=386.8175, F=97.7, /
&RAMP ID='CONE-RAMP', T=388.6421, F=97.7, /
&RAMP ID='CONE-RAMP', T=390.4668, F=97.7, /
&RAMP ID='CONE-RAMP', T=392.2914, F=97.8, /
&RAMP ID='CONE-RAMP', T=394.1160, F=97.9, /
&RAMP ID='CONE-RAMP', T=395.9406, F=98.0, /
&RAMP ID='CONE-RAMP', T=397.7652, F=98.1, /
&RAMP ID='CONE-RAMP', T=399.5898, F=98.2, /
&RAMP ID='CONE-RAMP', T=401.4144, F=98.1, /
&RAMP ID='CONE-RAMP', T=403.2390, F=98.2, /
&RAMP ID='CONE-RAMP', T=405.0636, F=98.2, /
&RAMP ID='CONE-RAMP', T=406.8883, F=98.1, /
&RAMP ID='CONE-RAMP', T=408.7129, F=98.0, /
&RAMP ID='CONE-RAMP', T=410.5375, F=97.8, /
&RAMP ID='CONE-RAMP', T=412.3621, F=97.6, /
&RAMP ID='CONE-RAMP', T=414.1867, F=97.4, /
&RAMP ID='CONE-RAMP', T=416.0113, F=97.2, /
&RAMP ID='CONE-RAMP', T=417.8359, F=97.2, /
&RAMP ID='CONE-RAMP', T=419.6605, F=97.2, /
&RAMP ID='CONE-RAMP', T=421.4851, F=97.1, /
&RAMP ID='CONE-RAMP', T=423.3098, F=97.1, /
&RAMP ID='CONE-RAMP', T=425.1344, F=97.1, /
&RAMP ID='CONE-RAMP', T=426.9590, F=97.0, /
&RAMP ID='CONE-RAMP', T=428.7836, F=96.9, /
&RAMP ID='CONE-RAMP', T=430.6082, F=96.8, /
&RAMP ID='CONE-RAMP', T=432.4328, F=96.8, /
&RAMP ID='CONE-RAMP', T=434.2574, F=96.7, /
&RAMP ID='CONE-RAMP', T=436.0820, F=96.6, /
&RAMP ID='CONE-RAMP', T=437.9066, F=96.5, /
&RAMP ID='CONE-RAMP', T=439.7313, F=96.4, /
&RAMP ID='CONE-RAMP', T=441.5559, F=96.3, /
&RAMP ID='CONE-RAMP', T=443.3805, F=96.3, /
&RAMP ID='CONE-RAMP', T=445.2051, F=96.4, /
&RAMP ID='CONE-RAMP', T=447.0297, F=96.5, /
&RAMP ID='CONE-RAMP', T=448.8543, F=96.8, /
&RAMP ID='CONE-RAMP', T=450.6789, F=97.1, /
&RAMP ID='CONE-RAMP', T=452.5035, F=97.2, /
&RAMP ID='CONE-RAMP', T=454.3281, F=97.2, /
&RAMP ID='CONE-RAMP', T=456.1528, F=97.3, /
&RAMP ID='CONE-RAMP', T=457.9774, F=97.3, /
&RAMP ID='CONE-RAMP', T=459.8020, F=97.3, /
&RAMP ID='CONE-RAMP', T=461.6266, F=97.4, /
&RAMP ID='CONE-RAMP', T=463.4512, F=97.5, /
&RAMP ID='CONE-RAMP', T=465.2758, F=97.5, /
&RAMP ID='CONE-RAMP', T=467.1004, F=97.6, /
&RAMP ID='CONE-RAMP', T=468.9250, F=97.7, /
&RAMP ID='CONE-RAMP', T=470.7496, F=97.7, /
&RAMP ID='CONE-RAMP', T=472.5743, F=97.6, /
&RAMP ID='CONE-RAMP', T=474.3989, F=97.6, /
&RAMP ID='CONE-RAMP', T=476.2235, F=97.5, /
&RAMP ID='CONE-RAMP', T=478.0481, F=97.4, /
&RAMP ID='CONE-RAMP', T=479.8727, F=97.2, /
&RAMP ID='CONE-RAMP', T=481.6973, F=97.1, /
&RAMP ID='CONE-RAMP', T=483.5219, F=97.2, /
&RAMP ID='CONE-RAMP', T=485.3465, F=97.1, /
&RAMP ID='CONE-RAMP', T=487.1711, F=97.2, /
&RAMP ID='CONE-RAMP', T=488.9958, F=97.4, /
&RAMP ID='CONE-RAMP', T=490.8204, F=97.5, /
&RAMP ID='CONE-RAMP', T=492.6450, F=97.6, /
&RAMP ID='CONE-RAMP', T=494.4696, F=97.6, /
&RAMP ID='CONE-RAMP', T=496.2942, F=97.7, /
&RAMP ID='CONE-RAMP', T=498.1188, F=97.7, /
&RAMP ID='CONE-RAMP', T=499.9434, F=97.7, /
&RAMP ID='CONE-RAMP', T=501.7680, F=97.7, /
&RAMP ID='CONE-RAMP', T=503.5926, F=97.7, /
&RAMP ID='CONE-RAMP', T=505.4173, F=97.8, /
&RAMP ID='CONE-RAMP', T=507.2419, F=97.9, /
&RAMP ID='CONE-RAMP', T=509.0665, F=98.0, /
&RAMP ID='CONE-RAMP', T=510.8911, F=98.0, /
&RAMP ID='CONE-RAMP', T=512.7157, F=98.2, /
&RAMP ID='CONE-RAMP', T=514.5403, F=98.3, /
&RAMP ID='CONE-RAMP', T=516.3649, F=98.4, /
&RAMP ID='CONE-RAMP', T=518.1895, F=98.4, /
&RAMP ID='CONE-RAMP', T=520.0141, F=98.5, /
&RAMP ID='CONE-RAMP', T=521.8388, F=98.7, /
&RAMP ID='CONE-RAMP', T=523.6634, F=98.8, /
&RAMP ID='CONE-RAMP', T=525.4880, F=98.9, /
&RAMP ID='CONE-RAMP', T=527.3126, F=99.0, /
&RAMP ID='CONE-RAMP', T=529.1372, F=99.1, /
&RAMP ID='CONE-RAMP', T=530.9618, F=99.0, /
&RAMP ID='CONE-RAMP', T=532.7864, F=99.0, /
&RAMP ID='CONE-RAMP', T=534.6110, F=99.1, /
&RAMP ID='CONE-RAMP', T=536.4356, F=99.1, /
&RAMP ID='CONE-RAMP', T=538.2603, F=99.2, /
&RAMP ID='CONE-RAMP', T=540.0849, F=99.3, /
&RAMP ID='CONE-RAMP', T=541.9095, F=99.3, /
&RAMP ID='CONE-RAMP', T=543.7341, F=99.3, /
&RAMP ID='CONE-RAMP', T=545.5587, F=99.3, /
&RAMP ID='CONE-RAMP', T=547.3833, F=99.4, /
&RAMP ID='CONE-RAMP', T=549.2079, F=99.6, /
&RAMP ID='CONE-RAMP', T=551.0325, F=99.7, /
&RAMP ID='CONE-RAMP', T=552.8571, F=100.1, /
&RAMP ID='CONE-RAMP', T=554.6818, F=100.3, /
&RAMP ID='CONE-RAMP', T=556.5064, F=100.7, /
&RAMP ID='CONE-RAMP', T=558.3310, F=100.9, /
&RAMP ID='CONE-RAMP', T=560.1556, F=101.2, /
&RAMP ID='CONE-RAMP', T=561.9802, F=101.4, /
&RAMP ID='CONE-RAMP', T=563.8048, F=101.6, /
&RAMP ID='CONE-RAMP', T=565.6294, F=101.8, /
&RAMP ID='CONE-RAMP', T=567.4540, F=101.9, /
&RAMP ID='CONE-RAMP', T=569.2786, F=102.0, /
&RAMP ID='CONE-RAMP', T=571.1033, F=102.2, /
&RAMP ID='CONE-RAMP', T=572.9279, F=102.3, /
&RAMP ID='CONE-RAMP', T=574.7525, F=102.5, /
&RAMP ID='CONE-RAMP', T=576.5771, F=102.7, /
&RAMP ID='CONE-RAMP', T=578.4017, F=102.8, /
&RAMP ID='CONE-RAMP', T=580.2263, F=103.0, /
&RAMP ID='CONE-RAMP', T=582.0509, F=103.2, /
&RAMP ID='CONE-RAMP', T=583.8755, F=103.4, /
&RAMP ID='CONE-RAMP', T=585.7001, F=103.6, /
&RAMP ID='CONE-RAMP', T=587.5248, F=103.8, /
&RAMP ID='CONE-RAMP', T=589.3494, F=104.1, /
&RAMP ID='CONE-RAMP', T=591.1740, F=104.4, /
&RAMP ID='CONE-RAMP', T=592.9986, F=104.6, /
&RAMP ID='CONE-RAMP', T=594.8232, F=104.9, /
&RAMP ID='CONE-RAMP', T=596.6478, F=105.1, /
&RAMP ID='CONE-RAMP', T=598.4724, F=105.4, /
&RAMP ID='CONE-RAMP', T=600.2970, F=105.7, /
&RAMP ID='CONE-RAMP', T=602.1216, F=106.0, /
&RAMP ID='CONE-RAMP', T=603.9463, F=106.3, /
&RAMP ID='CONE-RAMP', T=605.7709, F=106.7, /
&RAMP ID='CONE-RAMP', T=607.5955, F=106.9, /
&RAMP ID='CONE-RAMP', T=609.4201, F=107.2, /
&RAMP ID='CONE-RAMP', T=611.2447, F=107.4, /
&RAMP ID='CONE-RAMP', T=613.0693, F=107.6, /
&RAMP ID='CONE-RAMP', T=614.8939, F=107.9, /
&RAMP ID='CONE-RAMP', T=616.7185, F=108.2, /
&RAMP ID='CONE-RAMP', T=618.5431, F=108.5, /
&RAMP ID='CONE-RAMP', T=620.3678, F=108.8, /
&RAMP ID='CONE-RAMP', T=622.1924, F=109.1, /
&RAMP ID='CONE-RAMP', T=624.0170, F=109.5, /
&RAMP ID='CONE-RAMP', T=625.8416, F=109.8, /
&RAMP ID='CONE-RAMP', T=627.6662, F=110.2, /
&RAMP ID='CONE-RAMP', T=629.4908, F=110.5, /
&RAMP ID='CONE-RAMP', T=631.3154, F=110.7, /
&RAMP ID='CONE-RAMP', T=633.1400, F=110.9, /
&RAMP ID='CONE-RAMP', T=634.9646, F=111.1, /
&RAMP ID='CONE-RAMP', T=636.7893, F=111.3, /
&RAMP ID='CONE-RAMP', T=638.6139, F=111.6, /
&RAMP ID='CONE-RAMP', T=640.4385, F=112.2, /
&RAMP ID='CONE-RAMP', T=642.2631, F=112.9, /
&RAMP ID='CONE-RAMP', T=644.0877, F=113.6, /
&RAMP ID='CONE-RAMP', T=645.9123, F=114.4, /
&RAMP ID='CONE-RAMP', T=647.7369, F=115.1, /
&RAMP ID='CONE-RAMP', T=649.5615, F=115.5, /
&RAMP ID='CONE-RAMP', T=651.3861, F=116.0, /
&RAMP ID='CONE-RAMP', T=653.2107, F=116.5, /
&RAMP ID='CONE-RAMP', T=655.0354, F=117.0, /
&RAMP ID='CONE-RAMP', T=656.8600, F=117.6, /
&RAMP ID='CONE-RAMP', T=658.6846, F=118.3, /
&RAMP ID='CONE-RAMP', T=660.5092, F=119.1, /
&RAMP ID='CONE-RAMP', T=662.3338, F=119.9, /
&RAMP ID='CONE-RAMP', T=664.1584, F=120.7, /
&RAMP ID='CONE-RAMP', T=665.9830, F=121.5, /
&RAMP ID='CONE-RAMP', T=667.8076, F=122.1, /
&RAMP ID='CONE-RAMP', T=669.6322, F=122.9, /
&RAMP ID='CONE-RAMP', T=671.4569, F=123.6, /
&RAMP ID='CONE-RAMP', T=673.2815, F=124.0, /
&RAMP ID='CONE-RAMP', T=675.1061, F=124.5, /
&RAMP ID='CONE-RAMP', T=676.9307, F=125.1, /
&RAMP ID='CONE-RAMP', T=678.7553, F=125.6, /
&RAMP ID='CONE-RAMP', T=680.5799, F=126.2, /
&RAMP ID='CONE-RAMP', T=682.4045, F=126.8, /
&RAMP ID='CONE-RAMP', T=684.2291, F=127.6, /
&RAMP ID='CONE-RAMP', T=686.0537, F=128.4, /
&RAMP ID='CONE-RAMP', T=687.8784, F=129.3, /
&RAMP ID='CONE-RAMP', T=689.7030, F=130.2, /
&RAMP ID='CONE-RAMP', T=691.5276, F=131.0, /
&RAMP ID='CONE-RAMP', T=693.3522, F=131.8, /
&RAMP ID='CONE-RAMP', T=695.1768, F=132.5, /
&RAMP ID='CONE-RAMP', T=697.0014, F=133.3, /
&RAMP ID='CONE-RAMP', T=698.8260, F=133.9, /
&RAMP ID='CONE-RAMP', T=700.6506, F=134.7, /
&RAMP ID='CONE-RAMP', T=702.4752, F=135.4, /
&RAMP ID='CONE-RAMP', T=704.2999, F=136.1, /
&RAMP ID='CONE-RAMP', T=706.1245, F=136.8, /
&RAMP ID='CONE-RAMP', T=707.9491, F=137.6, /
&RAMP ID='CONE-RAMP', T=709.7737, F=138.3, /
&RAMP ID='CONE-RAMP', T=711.5983, F=139.0, /
&RAMP ID='CONE-RAMP', T=713.4229, F=139.7, /
&RAMP ID='CONE-RAMP', T=715.2475, F=140.5, /
&RAMP ID='CONE-RAMP', T=717.0721, F=141.1, /
&RAMP ID='CONE-RAMP', T=718.8967, F=141.7, /
&RAMP ID='CONE-RAMP', T=720.7214, F=142.2, /
&RAMP ID='CONE-RAMP', T=722.5460, F=142.9, /
&RAMP ID='CONE-RAMP', T=724.3706, F=143.6, /
&RAMP ID='CONE-RAMP', T=726.1952, F=144.2, /
&RAMP ID='CONE-RAMP', T=728.0198, F=145.0, /
&RAMP ID='CONE-RAMP', T=729.8444, F=145.7, /
&RAMP ID='CONE-RAMP', T=731.6690, F=146.6, /
&RAMP ID='CONE-RAMP', T=733.4936, F=147.2, /
&RAMP ID='CONE-RAMP', T=735.3182, F=148.0, /
&RAMP ID='CONE-RAMP', T=737.1429, F=148.6, /
&RAMP ID='CONE-RAMP', T=738.9675, F=149.2, /
&RAMP ID='CONE-RAMP', T=740.7921, F=149.8, /
&RAMP ID='CONE-RAMP', T=742.6167, F=150.6, /
&RAMP ID='CONE-RAMP', T=744.4413, F=151.4, /
&RAMP ID='CONE-RAMP', T=746.2659, F=152.3, /
&RAMP ID='CONE-RAMP', T=748.0905, F=153.3, /
&RAMP ID='CONE-RAMP', T=749.9151, F=154.3, /
&RAMP ID='CONE-RAMP', T=751.7397, F=155.2, /
&RAMP ID='CONE-RAMP', T=753.5644, F=156.0, /
&RAMP ID='CONE-RAMP', T=755.3890, F=156.8, /
&RAMP ID='CONE-RAMP', T=757.2136, F=157.6, /
&RAMP ID='CONE-RAMP', T=759.0382, F=158.4, /
&RAMP ID='CONE-RAMP', T=760.8628, F=159.4, /
&RAMP ID='CONE-RAMP', T=762.6874, F=160.4, /
&RAMP ID='CONE-RAMP', T=764.5120, F=161.6, /
&RAMP ID='CONE-RAMP', T=766.3366, F=162.8, /
&RAMP ID='CONE-RAMP', T=768.1612, F=164.0, /
&RAMP ID='CONE-RAMP', T=769.9859, F=165.0, /
&RAMP ID='CONE-RAMP', T=771.8105, F=166.0, /
&RAMP ID='CONE-RAMP', T=773.6351, F=166.9, /
&RAMP ID='CONE-RAMP', T=775.4597, F=167.8, /
&RAMP ID='CONE-RAMP', T=777.2843, F=168.7, /
&RAMP ID='CONE-RAMP', T=779.1089, F=169.6, /
&RAMP ID='CONE-RAMP', T=780.9335, F=170.5, /
&RAMP ID='CONE-RAMP', T=782.7581, F=171.4, /
&RAMP ID='CONE-RAMP', T=784.5827, F=172.5, /
&RAMP ID='CONE-RAMP', T=786.4074, F=173.6, /
&RAMP ID='CONE-RAMP', T=788.2320, F=174.9, /
&RAMP ID='CONE-RAMP', T=790.0566, F=176.0, /
&RAMP ID='CONE-RAMP', T=791.8812, F=177.3, /
&RAMP ID='CONE-RAMP', T=793.7058, F=178.6, /
&RAMP ID='CONE-RAMP', T=795.5304, F=179.6, /
&RAMP ID='CONE-RAMP', T=797.3550, F=180.7, /
&RAMP ID='CONE-RAMP', T=799.1796, F=182.0, /
&RAMP ID='CONE-RAMP', T=801.0042, F=183.2, /
&RAMP ID='CONE-RAMP', T=802.8289, F=184.4, /
&RAMP ID='CONE-RAMP', T=804.6535, F=185.5, /
&RAMP ID='CONE-RAMP', T=806.4781, F=186.7, /
&RAMP ID='CONE-RAMP', T=808.3027, F=187.8, /
&RAMP ID='CONE-RAMP', T=810.1273, F=188.8, /
&RAMP ID='CONE-RAMP', T=811.9519, F=189.8, /
&RAMP ID='CONE-RAMP', T=813.7765, F=190.6, /
&RAMP ID='CONE-RAMP', T=815.6011, F=191.6, /
&RAMP ID='CONE-RAMP', T=817.4257, F=192.2, /
&RAMP ID='CONE-RAMP', T=819.2504, F=193.0, /
&RAMP ID='CONE-RAMP', T=821.0750, F=193.8, /
&RAMP ID='CONE-RAMP', T=822.8996, F=194.6, /
&RAMP ID='CONE-RAMP', T=824.7242, F=195.4, /
&RAMP ID='CONE-RAMP', T=826.5488, F=196.4, /
&RAMP ID='CONE-RAMP', T=828.3734, F=197.5, /
&RAMP ID='CONE-RAMP', T=830.1980, F=198.6, /
&RAMP ID='CONE-RAMP', T=832.0226, F=199.6, /
&RAMP ID='CONE-RAMP', T=833.8472, F=200.6, /
&RAMP ID='CONE-RAMP', T=835.6719, F=201.7, /
&RAMP ID='CONE-RAMP', T=837.4965, F=202.6, /
&RAMP ID='CONE-RAMP', T=839.3211, F=203.5, /
&RAMP ID='CONE-RAMP', T=841.1457, F=204.3, /
&RAMP ID='CONE-RAMP', T=842.9703, F=205.1, /
&RAMP ID='CONE-RAMP', T=844.7949, F=206.1, /
&RAMP ID='CONE-RAMP', T=846.6195, F=207.1, /
&RAMP ID='CONE-RAMP', T=848.4441, F=208.2, /
&RAMP ID='CONE-RAMP', T=850.2687, F=209.2, /
&RAMP ID='CONE-RAMP', T=852.0934, F=210.2, /
&RAMP ID='CONE-RAMP', T=853.9180, F=211.3, /
&RAMP ID='CONE-RAMP', T=855.7426, F=212.1, /
&RAMP ID='CONE-RAMP', T=857.5672, F=212.9, /
&RAMP ID='CONE-RAMP', T=859.3918, F=213.8, /
&RAMP ID='CONE-RAMP', T=861.2164, F=214.7, /
&RAMP ID='CONE-RAMP', T=863.0410, F=215.5, /
&RAMP ID='CONE-RAMP', T=864.8656, F=216.3, /
&RAMP ID='CONE-RAMP', T=866.6902, F=217.3, /
&RAMP ID='CONE-RAMP', T=868.5149, F=218.1, /
&RAMP ID='CONE-RAMP', T=870.3395, F=219.1, /
&RAMP ID='CONE-RAMP', T=872.1641, F=219.9, /
&RAMP ID='CONE-RAMP', T=873.9887, F=220.8, /
&RAMP ID='CONE-RAMP', T=875.8133, F=221.8, /
&RAMP ID='CONE-RAMP', T=877.6379, F=222.6, /
&RAMP ID='CONE-RAMP', T=879.4625, F=223.3, /
&RAMP ID='CONE-RAMP', T=881.2871, F=224.0, /
&RAMP ID='CONE-RAMP', T=883.1117, F=224.9, /
&RAMP ID='CONE-RAMP', T=884.9364, F=225.6, /
&RAMP ID='CONE-RAMP', T=886.7610, F=226.5, /
&RAMP ID='CONE-RAMP', T=888.5856, F=227.4, /
&RAMP ID='CONE-RAMP', T=890.4102, F=228.2, /
&RAMP ID='CONE-RAMP', T=892.2348, F=228.8, /
&RAMP ID='CONE-RAMP', T=894.0594, F=229.4, /
&RAMP ID='CONE-RAMP', T=895.8840, F=230.2, /
&RAMP ID='CONE-RAMP', T=897.7086, F=230.6, /
&RAMP ID='CONE-RAMP', T=899.5332, F=231.2, /
&RAMP ID='CONE-RAMP', T=901.3579, F=231.7, /
&RAMP ID='CONE-RAMP', T=903.1825, F=232.1, /
&RAMP ID='CONE-RAMP', T=905.0071, F=232.4, /
&RAMP ID='CONE-RAMP', T=906.8317, F=232.4, /
&RAMP ID='CONE-RAMP', T=908.6563, F=232.3, /
&RAMP ID='CONE-RAMP', T=910.4809, F=232.1, /
&RAMP ID='CONE-RAMP', T=912.3055, F=231.6, /
&RAMP ID='CONE-RAMP', T=914.1301, F=231.1, /
&RAMP ID='CONE-RAMP', T=915.9547, F=230.2, /
&RAMP ID='CONE-RAMP', T=917.7793, F=229.4, /
&RAMP ID='CONE-RAMP', T=919.6040, F=228.6, /
&RAMP ID='CONE-RAMP', T=921.4286, F=227.7, /
&RAMP ID='CONE-RAMP', T=923.2532, F=226.5, /
&RAMP ID='CONE-RAMP', T=925.0778, F=224.8, /
&RAMP ID='CONE-RAMP', T=926.9024, F=223.5, /
&RAMP ID='CONE-RAMP', T=928.7270, F=221.5, /
&RAMP ID='CONE-RAMP', T=930.5516, F=219.2, /
&RAMP ID='CONE-RAMP', T=932.3762, F=216.9, /
&RAMP ID='CONE-RAMP', T=934.2008, F=214.5, /
&RAMP ID='CONE-RAMP', T=936.0255, F=212.2, /
&RAMP ID='CONE-RAMP', T=937.8501, F=209.9, /
&RAMP ID='CONE-RAMP', T=939.6747, F=207.9, /
&RAMP ID='CONE-RAMP', T=941.4993, F=206.0, /
&RAMP ID='CONE-RAMP', T=943.3239, F=203.8, /
&RAMP ID='CONE-RAMP', T=945.1485, F=201.9, /
&RAMP ID='CONE-RAMP', T=946.9731, F=200.1, /
&RAMP ID='CONE-RAMP', T=948.7977, F=198.3, /
&RAMP ID='CONE-RAMP', T=950.6223, F=196.7, /
&RAMP ID='CONE-RAMP', T=952.4470, F=195.3, /
&RAMP ID='CONE-RAMP', T=954.2716, F=194.3, /
&RAMP ID='CONE-RAMP', T=956.0962, F=193.2, /
&RAMP ID='CONE-RAMP', T=957.9208, F=192.2, /
&RAMP ID='CONE-RAMP', T=959.7454, F=191.2, /
&RAMP ID='CONE-RAMP', T=961.5700, F=190.1, /
&RAMP ID='CONE-RAMP', T=963.3946, F=189.0, /
&RAMP ID='CONE-RAMP', T=965.2192, F=187.7, /
&RAMP ID='CONE-RAMP', T=967.0438, F=186.4, /
&RAMP ID='CONE-RAMP', T=968.8685, F=185.1, /
&RAMP ID='CONE-RAMP', T=970.6931, F=183.6, /
&RAMP ID='CONE-RAMP', T=972.5177, F=182.1, /
&RAMP ID='CONE-RAMP', T=974.3423, F=180.6, /
&RAMP ID='CONE-RAMP', T=976.1669, F=179.3, /
&RAMP ID='CONE-RAMP', T=977.9915, F=177.9, /
&RAMP ID='CONE-RAMP', T=979.8161, F=176.5, /
&RAMP ID='CONE-RAMP', T=981.6407, F=174.8, /
&RAMP ID='CONE-RAMP', T=983.4653, F=173.0, /
&RAMP ID='CONE-RAMP', T=985.2900, F=170.7, /
&RAMP ID='CONE-RAMP', T=987.1146, F=168.5, /
&RAMP ID='CONE-RAMP', T=988.9392, F=165.9, /
&RAMP ID='CONE-RAMP', T=990.7638, F=163.3, /
&RAMP ID='CONE-RAMP', T=992.5884, F=160.6, /
&RAMP ID='CONE-RAMP', T=994.4130, F=157.6, /
&RAMP ID='CONE-RAMP', T=996.2376, F=154.5, /
&RAMP ID='CONE-RAMP', T=998.0622, F=151.1, /
&RAMP ID='CONE-RAMP', T=999.8868, F=147.3, /
&RAMP ID='CONE-RAMP', T=1001.7115, F=143.4, /
&RAMP ID='CONE-RAMP', T=1003.5361, F=139.2, /
&RAMP ID='CONE-RAMP', T=1005.3607, F=134.6, /
&RAMP ID='CONE-RAMP', T=1007.1853, F=129.7, /
&RAMP ID='CONE-RAMP', T=1009.0099, F=124.8, /
&RAMP ID='CONE-RAMP', T=1010.8345, F=119.9, /
&RAMP ID='CONE-RAMP', T=1012.6591, F=114.8, /
&RAMP ID='CONE-RAMP', T=1014.4837, F=109.9, /
&RAMP ID='CONE-RAMP', T=1016.3083, F=105.4, /
&RAMP ID='CONE-RAMP', T=1018.1330, F=101.3, /
&RAMP ID='CONE-RAMP', T=1019.9576, F=97.4, /
&RAMP ID='CONE-RAMP', T=1021.7822, F=93.9, /
&RAMP ID='CONE-RAMP', T=1023.6068, F=90.8, /
&RAMP ID='CONE-RAMP', T=1025.4314, F=88.1, /
&RAMP ID='CONE-RAMP', T=1027.2560, F=85.3, /
&RAMP ID='CONE-RAMP', T=1029.0806, F=82.6, /
&RAMP ID='CONE-RAMP', T=1030.9052, F=80.2, /
&RAMP ID='CONE-RAMP', T=1032.7298, F=77.9, /
&RAMP ID='CONE-RAMP', T=1034.5545, F=75.8, /
&RAMP ID='CONE-RAMP', T=1036.3791, F=73.8, /
&RAMP ID='CONE-RAMP', T=1038.2037, F=72.0, /
&RAMP ID='CONE-RAMP', T=1040.0283, F=70.5, /
&RAMP ID='CONE-RAMP', T=1041.8529, F=69.0, /
&RAMP ID='CONE-RAMP', T=1043.6775, F=67.7, /
&RAMP ID='CONE-RAMP', T=1045.5021, F=66.4, /
&RAMP ID='CONE-RAMP', T=1047.3267, F=65.2, /
&RAMP ID='CONE-RAMP', T=1049.1513, F=64.2, /
&RAMP ID='CONE-RAMP', T=1050.9760, F=63.2, /
&RAMP ID='CONE-RAMP', T=1052.8006, F=62.4, /
&RAMP ID='CONE-RAMP', T=1054.6252, F=61.6, /
&RAMP ID='CONE-RAMP', T=1056.4498, F=60.9, /
&RAMP ID='CONE-RAMP', T=1058.2744, F=60.3, /
&RAMP ID='CONE-RAMP', T=1060.0990, F=59.6, /
&RAMP ID='CONE-RAMP', T=1061.9236, F=59.0, /
&RAMP ID='CONE-RAMP', T=1063.7482, F=58.4, /
&RAMP ID='CONE-RAMP', T=1065.5728, F=57.8, /
&RAMP ID='CONE-RAMP', T=1067.3975, F=57.3, /
&RAMP ID='CONE-RAMP', T=1069.2221, F=56.7, /
&RAMP ID='CONE-RAMP', T=1071.0467, F=56.2, /
&RAMP ID='CONE-RAMP', T=1072.8713, F=55.8, /
&RAMP ID='CONE-RAMP', T=1074.6959, F=55.3, /
&RAMP ID='CONE-RAMP', T=1076.5205, F=54.8, /
&RAMP ID='CONE-RAMP', T=1078.3451, F=54.3, /
&RAMP ID='CONE-RAMP', T=1080.1697, F=53.9, /
&RAMP ID='CONE-RAMP', T=1081.9943, F=53.6, /
&RAMP ID='CONE-RAMP', T=1083.8190, F=53.3, /
&RAMP ID='CONE-RAMP', T=1085.6436, F=53.0, /
&RAMP ID='CONE-RAMP', T=1087.4682, F=52.8, /
&RAMP ID='CONE-RAMP', T=1089.2928, F=52.6, /
&RAMP ID='CONE-RAMP', T=1091.1174, F=52.4, /
&RAMP ID='CONE-RAMP', T=1092.9420, F=52.3, /
&RAMP ID='CONE-RAMP', T=1094.7666, F=52.1, /
&RAMP ID='CONE-RAMP', T=1096.5912, F=52.0, /
&RAMP ID='CONE-RAMP', T=1098.4158, F=51.8, /
&RAMP ID='CONE-RAMP', T=1100.2405, F=51.6, /
&RAMP ID='CONE-RAMP', T=1102.0651, F=51.3, /
&RAMP ID='CONE-RAMP', T=1103.8897, F=51.1, /
&RAMP ID='CONE-RAMP', T=1105.7143, F=50.9, /
&RAMP ID='CONE-RAMP', T=1107.5389, F=50.6, /
&RAMP ID='CONE-RAMP', T=1109.3635, F=50.4, /
&RAMP ID='CONE-RAMP', T=1111.1881, F=50.2, /
&RAMP ID='CONE-RAMP', T=1113.0127, F=49.9, /
&RAMP ID='CONE-RAMP', T=1114.8373, F=49.7, /
&RAMP ID='CONE-RAMP', T=1116.6620, F=49.5, /
&RAMP ID='CONE-RAMP', T=1118.4866, F=49.3, /
&RAMP ID='CONE-RAMP', T=1120.3112, F=49.2, /
&RAMP ID='CONE-RAMP', T=1122.1358, F=49.1, /
&RAMP ID='CONE-RAMP', T=1123.9604, F=48.8, /
&RAMP ID='CONE-RAMP', T=1125.7850, F=48.6, /
&RAMP ID='CONE-RAMP', T=1127.6096, F=48.2, /
&RAMP ID='CONE-RAMP', T=1129.4342, F=47.9, /
&RAMP ID='CONE-RAMP', T=1131.2588, F=47.6, /
&RAMP ID='CONE-RAMP', T=1133.0835, F=47.3, /
&RAMP ID='CONE-RAMP', T=1134.9081, F=47.2, /
&RAMP ID='CONE-RAMP', T=1136.7327, F=47.1, /
&RAMP ID='CONE-RAMP', T=1138.5573, F=47.0, /
&RAMP ID='CONE-RAMP', T=1140.3819, F=46.8, /
&RAMP ID='CONE-RAMP', T=1142.2065, F=46.7, /
&RAMP ID='CONE-RAMP', T=1144.0311, F=46.6, /
&RAMP ID='CONE-RAMP', T=1145.8557, F=46.5, /
&RAMP ID='CONE-RAMP', T=1147.6803, F=46.3, /
&RAMP ID='CONE-RAMP', T=1149.5050, F=46.2, /
&RAMP ID='CONE-RAMP', T=1151.3296, F=46.1, /
&RAMP ID='CONE-RAMP', T=1153.1542, F=45.9, /
&RAMP ID='CONE-RAMP', T=1154.9788, F=45.8, /
&RAMP ID='CONE-RAMP', T=1156.8034, F=45.7, /
&RAMP ID='CONE-RAMP', T=1158.6280, F=45.6, /
&RAMP ID='CONE-RAMP', T=1160.4526, F=45.6, /
&RAMP ID='CONE-RAMP', T=1162.2772, F=45.5, /
&RAMP ID='CONE-RAMP', T=1164.1018, F=45.4, /
&RAMP ID='CONE-RAMP', T=1165.9264, F=45.3, /
&RAMP ID='CONE-RAMP', T=1167.7511, F=45.2, /
&RAMP ID='CONE-RAMP', T=1169.5757, F=45.1, /
&RAMP ID='CONE-RAMP', T=1171.4003, F=45.0, /
&RAMP ID='CONE-RAMP', T=1173.2249, F=44.9, /
&RAMP ID='CONE-RAMP', T=1175.0495, F=44.9, /
&RAMP ID='CONE-RAMP', T=1176.8741, F=45.0, /
&RAMP ID='CONE-RAMP', T=1178.6987, F=45.1, /
&RAMP ID='CONE-RAMP', T=1180.5233, F=45.1, /
&RAMP ID='CONE-RAMP', T=1182.3479, F=45.0, /
&RAMP ID='CONE-RAMP', T=1184.1726, F=44.9, /
&RAMP ID='CONE-RAMP', T=1185.9972, F=44.7, /
&RAMP ID='CONE-RAMP', T=1187.8218, F=44.5, /
&RAMP ID='CONE-RAMP', T=1189.6464, F=44.2, /
&RAMP ID='CONE-RAMP', T=1191.4710, F=43.9, /
&RAMP ID='CONE-RAMP', T=1193.2956, F=43.7, /
&RAMP ID='CONE-RAMP', T=1195.1202, F=43.4, /
&RAMP ID='CONE-RAMP', T=1196.9448, F=43.3, /
&RAMP ID='CONE-RAMP', T=1198.7694, F=43.1, /
&RAMP ID='CONE-RAMP', T=1200.5941, F=43.0, /