&HEAD CHID='FSRI_Wood_Stud', /
&TIME DT=1., T_END=7276.9 /
&DUMP DT_CTRL=1.0, DT_DEVC=1.0, DT_HRR=1.0, SIG_FIGS=4, SIG_FIGS_EXP=2, /
&MISC SOLID_PHASE_ONLY=.TRUE., TMPA=27., /
&MESH ID='MESH', IJK=3,3,3, XB=0.,0.3,0.,0.3,0.,0.3, /
&REAC ID='PROPANE', FUEL='PROPANE', /
&MATL ID='BACKING', CONDUCTIVITY=0.10, DENSITY=65., EMISSIVITY=0.9, SPECIFIC_HEAT=1.14, /
&MATL ID='SAMPLE', CONDUCTIVITY=0.1000, DENSITY=379.0, EMISSIVITY=1.0000, SPECIFIC_HEAT=1469.0000, /
&RAMP ID='CONE-RAMP', T=0.0000, F=44.0, /
&RAMP ID='CONE-RAMP', T=1.8249, F=79.0, /
&RAMP ID='CONE-RAMP', T=3.6498, F=121.7, /
&RAMP ID='CONE-RAMP', T=5.4747, F=167.8, /
&RAMP ID='CONE-RAMP', T=7.2996, F=206.0, /
&RAMP ID='CONE-RAMP', T=9.1245, F=233.8, /
&RAMP ID='CONE-RAMP', T=10.9494, F=249.1, /
&RAMP ID='CONE-RAMP', T=12.7743, F=252.1, /
&RAMP ID='CONE-RAMP', T=14.5992, F=246.4, /
&RAMP ID='CONE-RAMP', T=16.4241, F=236.5, /
&RAMP ID='CONE-RAMP', T=18.2489, F=225.1, /
&RAMP ID='CONE-RAMP', T=20.0738, F=214.1, /
&RAMP ID='CONE-RAMP', T=21.8987, F=204.5, /
&RAMP ID='CONE-RAMP', T=23.7236, F=196.2, /
&RAMP ID='CONE-RAMP', T=25.5485, F=189.4, /
&RAMP ID='CONE-RAMP', T=27.3734, F=183.8, /
&RAMP ID='CONE-RAMP', T=29.1983, F=179.2, /
&RAMP ID='CONE-RAMP', T=31.0232, F=175.2, /
&RAMP ID='CONE-RAMP', T=32.8481, F=171.8, /
&RAMP ID='CONE-RAMP', T=34.6730, F=168.9, /
&RAMP ID='CONE-RAMP', T=36.4979, F=166.3, /
&RAMP ID='CONE-RAMP', T=38.3228, F=163.9, /
&RAMP ID='CONE-RAMP', T=40.1477, F=161.7, /
&RAMP ID='CONE-RAMP', T=41.9726, F=159.6, /
&RAMP ID='CONE-RAMP', T=43.7975, F=157.4, /
&RAMP ID='CONE-RAMP', T=45.6224, F=155.5, /
&RAMP ID='CONE-RAMP', T=47.4473, F=153.6, /
&RAMP ID='CONE-RAMP', T=49.2722, F=151.7, /
&RAMP ID='CONE-RAMP', T=51.0970, F=150.1, /
&RAMP ID='CONE-RAMP', T=52.9219, F=148.3, /
&RAMP ID='CONE-RAMP', T=54.7468, F=146.6, /
&RAMP ID='CONE-RAMP', T=56.5717, F=145.1, /
&RAMP ID='CONE-RAMP', T=58.3966, F=143.4, /
&RAMP ID='CONE-RAMP', T=60.2215, F=141.6, /
&RAMP ID='CONE-RAMP', T=62.0464, F=140.0, /
&RAMP ID='CONE-RAMP', T=63.8713, F=138.5, /
&RAMP ID='CONE-RAMP', T=65.6962, F=136.9, /
&RAMP ID='CONE-RAMP', T=67.5211, F=135.4, /
&RAMP ID='CONE-RAMP', T=69.3460, F=134.1, /
&RAMP ID='CONE-RAMP', T=71.1709, F=132.7, /
&RAMP ID='CONE-RAMP', T=72.9958, F=131.4, /
&RAMP ID='CONE-RAMP', T=74.8207, F=130.0, /
&RAMP ID='CONE-RAMP', T=76.6456, F=128.8, /
&RAMP ID='CONE-RAMP', T=78.4705, F=127.4, /
&RAMP ID='CONE-RAMP', T=80.2954, F=126.2, /
&RAMP ID='CONE-RAMP', T=82.1203, F=125.3, /
&RAMP ID='CONE-RAMP', T=83.9451, F=124.3, /
&RAMP ID='CONE-RAMP', T=85.7700, F=123.3, /
&RAMP ID='CONE-RAMP', T=87.5949, F=122.4, /
&RAMP ID='CONE-RAMP', T=89.4198, F=121.6, /
&RAMP ID='CONE-RAMP', T=91.2447, F=120.7, /
&RAMP ID='CONE-RAMP', T=93.0696, F=119.8, /
&RAMP ID='CONE-RAMP', T=94.8945, F=118.9, /
&RAMP ID='CONE-RAMP', T=96.7194, F=118.2, /
&RAMP ID='CONE-RAMP', T=98.5443, F=117.4, /
&RAMP ID='CONE-RAMP', T=100.3692, F=116.5, /
&RAMP ID='CONE-RAMP', T=102.1941, F=115.6, /
&RAMP ID='CONE-RAMP', T=104.0190, F=114.8, /
&RAMP ID='CONE-RAMP', T=105.8439, F=113.9, /
&RAMP ID='CONE-RAMP', T=107.6688, F=113.0, /
&RAMP ID='CONE-RAMP', T=109.4937, F=112.2, /
&RAMP ID='CONE-RAMP', T=111.3186, F=111.4, /
&RAMP ID='CONE-RAMP', T=113.1435, F=110.7, /
&RAMP ID='CONE-RAMP', T=114.9684, F=110.1, /
&RAMP ID='CONE-RAMP', T=116.7932, F=109.8, /
&RAMP ID='CONE-RAMP', T=118.6181, F=109.4, /
&RAMP ID='CONE-RAMP', T=120.4430, F=109.2, /
&RAMP ID='CONE-RAMP', T=122.2679, F=108.9, /
&RAMP ID='CONE-RAMP', T=124.0928, F=108.7, /
&RAMP ID='CONE-RAMP', T=125.9177, F=108.4, /
&RAMP ID='CONE-RAMP', T=127.7426, F=108.1, /
&RAMP ID='CONE-RAMP', T=129.5675, F=107.8, /
&RAMP ID='CONE-RAMP', T=131.3924, F=107.5, /
&RAMP ID='CONE-RAMP', T=133.2173, F=107.3, /
&RAMP ID='CONE-RAMP', T=135.0422, F=106.9, /
&RAMP ID='CONE-RAMP', T=136.8671, F=106.5, /
&RAMP ID='CONE-RAMP', T=138.6920, F=106.0, /
&RAMP ID='CONE-RAMP', T=140.5169, F=105.6, /
&RAMP ID='CONE-RAMP', T=142.3418, F=105.2, /
&RAMP ID='CONE-RAMP', T=144.1667, F=104.8, /
&RAMP ID='CONE-RAMP', T=145.9916, F=104.3, /
&RAMP ID='CONE-RAMP', T=147.8165, F=104.0, /
&RAMP ID='CONE-RAMP', T=149.6414, F=103.6, /
&RAMP ID='CONE-RAMP', T=151.4662, F=103.2, /
&RAMP ID='CONE-RAMP', T=153.2911, F=102.8, /
&RAMP ID='CONE-RAMP', T=155.1160, F=102.5, /
&RAMP ID='CONE-RAMP', T=156.9409, F=102.1, /
&RAMP ID='CONE-RAMP', T=158.7658, F=101.9, /
&RAMP ID='CONE-RAMP', T=160.5907, F=101.7, /
&RAMP ID='CONE-RAMP', T=162.4156, F=101.4, /
&RAMP ID='CONE-RAMP', T=164.2405, F=101.0, /
&RAMP ID='CONE-RAMP', T=166.0654, F=100.8, /
&RAMP ID='CONE-RAMP', T=167.8903, F=100.6, /
&RAMP ID='CONE-RAMP', T=169.7152, F=100.3, /
&RAMP ID='CONE-RAMP', T=171.5401, F=99.8, /
&RAMP ID='CONE-RAMP', T=173.3650, F=99.4, /
&RAMP ID='CONE-RAMP', T=175.1899, F=99.1, /
&RAMP ID='CONE-RAMP', T=177.0148, F=98.6, /
&RAMP ID='CONE-RAMP', T=178.8397, F=98.3, /
&RAMP ID='CONE-RAMP', T=180.6646, F=98.0, /
&RAMP ID='CONE-RAMP', T=182.4895, F=97.8, /
&RAMP ID='CONE-RAMP', T=184.3143, F=97.6, /
&RAMP ID='CONE-RAMP', T=186.1392, F=97.4, /
&RAMP ID='CONE-RAMP', T=187.9641, F=97.3, /
&RAMP ID='CONE-RAMP', T=189.7890, F=97.0, /
&RAMP ID='CONE-RAMP', T=191.6139, F=96.8, /
&RAMP ID='CONE-RAMP', T=193.4388, F=96.7, /
&RAMP ID='CONE-RAMP', T=195.2637, F=96.5, /
&RAMP ID='CONE-RAMP', T=197.0886, F=96.3, /
&RAMP ID='CONE-RAMP', T=198.9135, F=96.1, /
&RAMP ID='CONE-RAMP', T=200.7384, F=95.9, /
&RAMP ID='CONE-RAMP', T=202.5633, F=95.8, /
&RAMP ID='CONE-RAMP', T=204.3882, F=95.7, /
&RAMP ID='CONE-RAMP', T=206.2131, F=95.7, /
&RAMP ID='CONE-RAMP', T=208.0380, F=95.7, /
&RAMP ID='CONE-RAMP', T=209.8629, F=95.8, /
&RAMP ID='CONE-RAMP', T=211.6878, F=95.9, /
&RAMP ID='CONE-RAMP', T=213.5127, F=96.0, /
&RAMP ID='CONE-RAMP', T=215.3376, F=96.2, /
&RAMP ID='CONE-RAMP', T=217.1624, F=96.2, /
&RAMP ID='CONE-RAMP', T=218.9873, F=96.1, /
&RAMP ID='CONE-RAMP', T=220.8122, F=96.1, /
&RAMP ID='CONE-RAMP', T=222.6371, F=96.1, /
&RAMP ID='CONE-RAMP', T=224.4620, F=96.0, /
&RAMP ID='CONE-RAMP', T=226.2869, F=96.0, /
&RAMP ID='CONE-RAMP', T=228.1118, F=96.1, /
&RAMP ID='CONE-RAMP', T=229.9367, F=96.2, /
&RAMP ID='CONE-RAMP', T=231.7616, F=96.1, /
&RAMP ID='CONE-RAMP', T=233.5865, F=96.0, /
&RAMP ID='CONE-RAMP', T=235.4114, F=95.9, /
&RAMP ID='CONE-RAMP', T=237.2363, F=95.7, /
&RAMP ID='CONE-RAMP', T=239.0612, F=95.5, /
&RAMP ID='CONE-RAMP', T=240.8861, F=95.4, /
&RAMP ID='CONE-RAMP', T=242.7110, F=95.3, /
&RAMP ID='CONE-RAMP', T=244.5359, F=95.0, /
&RAMP ID='CONE-RAMP', T=246.3608, F=94.8, /
&RAMP ID='CONE-RAMP', T=248.1857, F=94.5, /
&RAMP ID='CONE-RAMP', T=250.0105, F=94.1, /
&RAMP ID='CONE-RAMP', T=251.8354, F=93.8, /
&RAMP ID='CONE-RAMP', T=253.6603, F=93.5, /
&RAMP ID='CONE-RAMP', T=255.4852, F=93.2, /
&RAMP ID='CONE-RAMP', T=257.3101, F=93.0, /
&RAMP ID='CONE-RAMP', T=259.1350, F=92.8, /
&RAMP ID='CONE-RAMP', T=260.9599, F=92.6, /
&RAMP ID='CONE-RAMP', T=262.7848, F=92.4, /
&RAMP ID='CONE-RAMP', T=264.6097, F=92.1, /
&RAMP ID='CONE-RAMP', T=266.4346, F=91.9, /
&RAMP ID='CONE-RAMP', T=268.2595, F=91.6, /
&RAMP ID='CONE-RAMP', T=270.0844, F=91.4, /
&RAMP ID='CONE-RAMP', T=271.9093, F=91.3, /
&RAMP ID='CONE-RAMP', T=273.7342, F=91.2, /
&RAMP ID='CONE-RAMP', T=275.5591, F=91.1, /
&RAMP ID='CONE-RAMP', T=277.3840, F=91.1, /
&RAMP ID='CONE-RAMP', T=279.2089, F=91.1, /
&RAMP ID='CONE-RAMP', T=281.0338, F=91.0, /
&RAMP ID='CONE-RAMP', T=282.8586, F=91.0, /
&RAMP ID='CONE-RAMP', T=284.6835, F=90.9, /
&RAMP ID='CONE-RAMP', T=286.5084, F=90.9, /
&RAMP ID='CONE-RAMP', T=288.3333, F=90.8, /
&RAMP ID='CONE-RAMP', T=290.1582, F=90.7, /
&RAMP ID='CONE-RAMP', T=291.9831, F=90.7, /
&RAMP ID='CONE-RAMP', T=293.8080, F=90.6, /
&RAMP ID='CONE-RAMP', T=295.6329, F=90.6, /
&RAMP ID='CONE-RAMP', T=297.4578, F=90.5, /
&RAMP ID='CONE-RAMP', T=299.2827, F=90.5, /
&RAMP ID='CONE-RAMP', T=301.1076, F=90.4, /
&RAMP ID='CONE-RAMP', T=302.9325, F=90.3, /
&RAMP ID='CONE-RAMP', T=304.7574, F=90.2, /
&RAMP ID='CONE-RAMP', T=306.5823, F=90.0, /
&RAMP ID='CONE-RAMP', T=308.4072, F=89.8, /
&RAMP ID='CONE-RAMP', T=310.2321, F=89.7, /
&RAMP ID='CONE-RAMP', T=312.0570, F=89.6, /
&RAMP ID='CONE-RAMP', T=313.8819, F=89.5, /
&RAMP ID='CONE-RAMP', T=315.7068, F=89.4, /
&RAMP ID='CONE-RAMP', T=317.5316, F=89.3, /
&RAMP ID='CONE-RAMP', T=319.3565, F=89.2, /
&RAMP ID='CONE-RAMP', T=321.1814, F=89.0, /
&RAMP ID='CONE-RAMP', T=323.0063, F=88.9, /
&RAMP ID='CONE-RAMP', T=324.8312, F=88.8, /
&RAMP ID='CONE-RAMP', T=326.6561, F=88.7, /
&RAMP ID='CONE-RAMP', T=328.4810, F=88.5, /
&RAMP ID='CONE-RAMP', T=330.3059, F=88.3, /
&RAMP ID='CONE-RAMP', T=332.1308, F=88.1, /
&RAMP ID='CONE-RAMP', T=333.9557, F=88.0, /
&RAMP ID='CONE-RAMP', T=335.7806, F=88.0, /
&RAMP ID='CONE-RAMP', T=337.6055, F=87.9, /
&RAMP ID='CONE-RAMP', T=339.4304, F=87.9, /
&RAMP ID='CONE-RAMP', T=341.2553, F=87.9, /
&RAMP ID='CONE-RAMP', T=343.0802, F=87.9, /
&RAMP ID='CONE-RAMP', T=344.9051, F=87.9, /
&RAMP ID='CONE-RAMP', T=346.7300, F=87.8, /
&RAMP ID='CONE-RAMP', T=348.5549, F=87.8, /
&RAMP ID='CONE-RAMP', T=350.3797, F=87.8, /
&RAMP ID='CONE-RAMP', T=352.2046, F=87.7, /
&RAMP ID='CONE-RAMP', T=354.0295, F=87.8, /
&RAMP ID='CONE-RAMP', T=355.8544, F=87.8, /
&RAMP ID='CONE-RAMP', T=357.6793, F=87.8, /
&RAMP ID='CONE-RAMP', T=359.5042, F=87.8, /
&RAMP ID='CONE-RAMP', T=361.3291, F=87.8, /
&RAMP ID='CONE-RAMP', T=363.1540, F=87.6, /
&RAMP ID='CONE-RAMP', T=364.9789, F=87.6, /
&RAMP ID='CONE-RAMP', T=366.8038, F=87.5, /
&RAMP ID='CONE-RAMP', T=368.6287, F=87.5, /
&RAMP ID='CONE-RAMP', T=370.4536, F=87.5, /
&RAMP ID='CONE-RAMP', T=372.2785, F=87.7, /
&RAMP ID='CONE-RAMP', T=374.1034, F=87.8, /
&RAMP ID='CONE-RAMP', T=375.9283, F=88.0, /
&RAMP ID='CONE-RAMP', T=377.7532, F=88.0, /
&RAMP ID='CONE-RAMP', T=379.5781, F=88.1, /
&RAMP ID='CONE-RAMP', T=381.4030, F=88.2, /
&RAMP ID='CONE-RAMP', T=383.2278, F=88.3, /
&RAMP ID='CONE-RAMP', T=385.0527, F=88.5, /
&RAMP ID='CONE-RAMP', T=386.8776, F=88.7, /
&RAMP ID='CONE-RAMP', T=388.7025, F=88.9, /
&RAMP ID='CONE-RAMP', T=390.5274, F=89.0, /
&RAMP ID='CONE-RAMP', T=392.3523, F=88.9, /
&RAMP ID='CONE-RAMP', T=394.1772, F=88.8, /
&RAMP ID='CONE-RAMP', T=396.0021, F=88.6, /
&RAMP ID='CONE-RAMP', T=397.8270, F=88.6, /
&RAMP ID='CONE-RAMP', T=399.6519, F=88.6, /
&RAMP ID='CONE-RAMP', T=401.4768, F=88.6, /
&RAMP ID='CONE-RAMP', T=403.3017, F=88.8, /
&RAMP ID='CONE-RAMP', T=405.1266, F=89.0, /
&RAMP ID='CONE-RAMP', T=406.9515, F=89.1, /
&RAMP ID='CONE-RAMP', T=408.7764, F=89.1, /
&RAMP ID='CONE-RAMP', T=410.6013, F=89.1, /
&RAMP ID='CONE-RAMP', T=412.4262, F=89.1, /
&RAMP ID='CONE-RAMP', T=414.2511, F=89.0, /
&RAMP ID='CONE-RAMP', T=416.0759, F=89.0, /
&RAMP ID='CONE-RAMP', T=417.9008, F=89.0, /
&RAMP ID='CONE-RAMP', T=419.7257, F=88.9, /
&RAMP ID='CONE-RAMP', T=421.5506, F=88.9, /
&RAMP ID='CONE-RAMP', T=423.3755, F=88.9, /
&RAMP ID='CONE-RAMP', T=425.2004, F=88.9, /
&RAMP ID='CONE-RAMP', T=427.0253, F=88.9, /
&RAMP ID='CONE-RAMP', T=428.8502, F=89.0, /
&RAMP ID='CONE-RAMP', T=430.6751, F=89.1, /
&RAMP ID='CONE-RAMP', T=432.5000, F=89.0, /
&RAMP ID='CONE-RAMP', T=434.3249, F=89.0, /
&RAMP ID='CONE-RAMP', T=436.1498, F=88.9, /
&RAMP ID='CONE-RAMP', T=437.9747, F=88.9, /
&RAMP ID='CONE-RAMP', T=439.7996, F=88.8, /
&RAMP ID='CONE-RAMP', T=441.6245, F=88.7, /
&RAMP ID='CONE-RAMP', T=443.4494, F=88.6, /
&RAMP ID='CONE-RAMP', T=445.2743, F=88.5, /
&RAMP ID='CONE-RAMP', T=447.0992, F=88.3, /
&RAMP ID='CONE-RAMP', T=448.9241, F=88.1, /
&RAMP ID='CONE-RAMP', T=450.7489, F=87.8, /
&RAMP ID='CONE-RAMP', T=452.5738, F=87.6, /
&RAMP ID='CONE-RAMP', T=454.3987, F=87.5, /
&RAMP ID='CONE-RAMP', T=456.2236, F=87.4, /
&RAMP ID='CONE-RAMP', T=458.0485, F=87.4, /
&RAMP ID='CONE-RAMP', T=459.8734, F=87.5, /
&RAMP ID='CONE-RAMP', T=461.6983, F=87.6, /
&RAMP ID='CONE-RAMP', T=463.5232, F=87.7, /
&RAMP ID='CONE-RAMP', T=465.3481, F=87.7, /
&RAMP ID='CONE-RAMP', T=467.1730, F=87.6, /
&RAMP ID='CONE-RAMP', T=468.9979, F=87.5, /
&RAMP ID='CONE-RAMP', T=470.8228, F=87.5, /
&RAMP ID='CONE-RAMP', T=472.6477, F=87.4, /
&RAMP ID='CONE-RAMP', T=474.4726, F=87.3, /
&RAMP ID='CONE-RAMP', T=476.2975, F=87.2, /
&RAMP ID='CONE-RAMP', T=478.1224, F=87.1, /
&RAMP ID='CONE-RAMP', T=479.9473, F=87.1, /
&RAMP ID='CONE-RAMP', T=481.7722, F=86.9, /
&RAMP ID='CONE-RAMP', T=483.5970, F=86.7, /
&RAMP ID='CONE-RAMP', T=485.4219, F=86.7, /
&RAMP ID='CONE-RAMP', T=487.2468, F=86.6, /
&RAMP ID='CONE-RAMP', T=489.0717, F=86.6, /
&RAMP ID='CONE-RAMP', T=490.8966, F=86.6, /
&RAMP ID='CONE-RAMP', T=492.7215, F=86.5, /
&RAMP ID='CONE-RAMP', T=494.5464, F=86.4, /
&RAMP ID='CONE-RAMP', T=496.3713, F=86.3, /
&RAMP ID='CONE-RAMP', T=498.1962, F=86.1, /
&RAMP ID='CONE-RAMP', T=500.0211, F=86.0, /
&RAMP ID='CONE-RAMP', T=501.8460, F=85.9, /
&RAMP ID='CONE-RAMP', T=503.6709, F=85.7, /
&RAMP ID='CONE-RAMP', T=505.4958, F=85.8, /
&RAMP ID='CONE-RAMP', T=507.3207, F=85.9, /
&RAMP ID='CONE-RAMP', T=509.1456, F=86.0, /
&RAMP ID='CONE-RAMP', T=510.9705, F=86.0, /
&RAMP ID='CONE-RAMP', T=512.7954, F=86.1, /
&RAMP ID='CONE-RAMP', T=514.6203, F=86.2, /
&RAMP ID='CONE-RAMP', T=516.4451, F=86.2, /
&RAMP ID='CONE-RAMP', T=518.2700, F=86.3, /
&RAMP ID='CONE-RAMP', T=520.0949, F=86.2, /
&RAMP ID='CONE-RAMP', T=521.9198, F=86.1, /
&RAMP ID='CONE-RAMP', T=523.7447, F=85.9, /
&RAMP ID='CONE-RAMP', T=525.5696, F=85.7, /
&RAMP ID='CONE-RAMP', T=527.3945, F=85.4, /
&RAMP ID='CONE-RAMP', T=529.2194, F=85.2, /
&RAMP ID='CONE-RAMP', T=531.0443, F=85.1, /
&RAMP ID='CONE-RAMP', T=532.8692, F=85.1, /
&RAMP ID='CONE-RAMP', T=534.6941, F=85.1, /
&RAMP ID='CONE-RAMP', T=536.5190, F=85.3, /
&RAMP ID='CONE-RAMP', T=538.3439, F=85.3, /
&RAMP ID='CONE-RAMP', T=540.1688, F=85.4, /
&RAMP ID='CONE-RAMP', T=541.9937, F=85.4, /
&RAMP ID='CONE-RAMP', T=543.8186, F=85.4, /
&RAMP ID='CONE-RAMP', T=545.6435, F=85.4, /
&RAMP ID='CONE-RAMP', T=547.4684, F=85.3, /
&RAMP ID='CONE-RAMP', T=549.2932, F=85.2, /
&RAMP ID='CONE-RAMP', T=551.1181, F=85.1, /
&RAMP ID='CONE-RAMP', T=552.9430, F=85.1, /
&RAMP ID='CONE-RAMP', T=554.7679, F=85.1, /
&RAMP ID='CONE-RAMP', T=556.5928, F=85.1, /
&RAMP ID='CONE-RAMP', T=558.4177, F=85.0, /
&RAMP ID='CONE-RAMP', T=560.2426, F=85.0, /
&RAMP ID='CONE-RAMP', T=562.0675, F=84.9, /
&RAMP ID='CONE-RAMP', T=563.8924, F=84.7, /
&RAMP ID='CONE-RAMP', T=565.7173, F=84.5, /
&RAMP ID='CONE-RAMP', T=567.5422, F=84.4, /
&RAMP ID='CONE-RAMP', T=569.3671, F=84.3, /
&RAMP ID='CONE-RAMP', T=571.1920, F=84.4, /
&RAMP ID='CONE-RAMP', T=573.0169, F=84.3, /
&RAMP ID='CONE-RAMP', T=574.8418, F=84.3, /
&RAMP ID='CONE-RAMP', T=576.6667, F=84.3, /
&RAMP ID='CONE-RAMP', T=578.4916, F=84.2, /
&RAMP ID='CONE-RAMP', T=580.3165, F=84.1, /
&RAMP ID='CONE-RAMP', T=582.1414, F=84.0, /
&RAMP ID='CONE-RAMP', T=583.9662, F=83.9, /
&RAMP ID='CONE-RAMP', T=585.7911, F=83.7, /
&RAMP ID='CONE-RAMP', T=587.6160, F=83.6, /
&RAMP ID='CONE-RAMP', T=589.4409, F=83.5, /
&RAMP ID='CONE-RAMP', T=591.2658, F=83.6, /
&RAMP ID='CONE-RAMP', T=593.0907, F=83.5, /
&RAMP ID='CONE-RAMP', T=594.9156, F=83.5, /
&RAMP ID='CONE-RAMP', T=596.7405, F=83.5, /
&RAMP ID='CONE-RAMP', T=598.5654, F=83.6, /
&RAMP ID='CONE-RAMP', T=600.3903, F=83.5, /
&RAMP ID='CONE-RAMP', T=602.2152, F=83.6, /
&RAMP ID='CONE-RAMP', T=604.0401, F=83.7, /
&RAMP ID='CONE-RAMP', T=605.8650, F=83.8, /
&RAMP ID='CONE-RAMP', T=607.6899, F=83.9, /
&RAMP ID='CONE-RAMP', T=609.5148, F=83.9, /
&RAMP ID='CONE-RAMP', T=611.3397, F=83.8, /
&RAMP ID='CONE-RAMP', T=613.1646, F=83.8, /
&RAMP ID='CONE-RAMP', T=614.9895, F=83.7, /
&RAMP ID='CONE-RAMP', T=616.8143, F=83.6, /
&RAMP ID='CONE-RAMP', T=618.6392, F=83.5, /
&RAMP ID='CONE-RAMP', T=620.4641, F=83.4, /
&RAMP ID='CONE-RAMP', T=622.2890, F=83.3, /
&RAMP ID='CONE-RAMP', T=624.1139, F=83.2, /
&RAMP ID='CONE-RAMP', T=625.9388, F=83.2, /
&RAMP ID='CONE-RAMP', T=627.7637, F=83.2, /
&RAMP ID='CONE-RAMP', T=629.5886, F=83.1, /
&RAMP ID='CONE-RAMP', T=631.4135, F=83.2, /
&RAMP ID='CONE-RAMP', T=633.2384, F=83.3, /
&RAMP ID='CONE-RAMP', T=635.0633, F=83.3, /
&RAMP ID='CONE-RAMP', T=636.8882, F=83.5, /
&RAMP ID='CONE-RAMP', T=638.7131, F=83.6, /
&RAMP ID='CONE-RAMP', T=640.5380, F=83.7, /
&RAMP ID='CONE-RAMP', T=642.3629, F=83.6, /
&RAMP ID='CONE-RAMP', T=644.1878, F=83.5, /
&RAMP ID='CONE-RAMP', T=646.0127, F=83.4, /
&RAMP ID='CONE-RAMP', T=647.8376, F=83.2, /
&RAMP ID='CONE-RAMP', T=649.6624, F=83.1, /
&RAMP ID='CONE-RAMP', T=651.4873, F=83.1, /
&RAMP ID='CONE-RAMP', T=653.3122, F=83.2, /
&RAMP ID='CONE-RAMP', T=655.1371, F=83.3, /
&RAMP ID='CONE-RAMP', T=656.9620, F=83.5, /
&RAMP ID='CONE-RAMP', T=658.7869, F=83.7, /
&RAMP ID='CONE-RAMP', T=660.6118, F=83.8, /
&RAMP ID='CONE-RAMP', T=662.4367, F=83.8, /
&RAMP ID='CONE-RAMP', T=664.2616, F=83.8, /
&RAMP ID='CONE-RAMP', T=666.0865, F=83.7, /
&RAMP ID='CONE-RAMP', T=667.9114, F=83.8, /
&RAMP ID='CONE-RAMP', T=669.7363, F=83.9, /
&RAMP ID='CONE-RAMP', T=671.5612, F=84.0, /
&RAMP ID='CONE-RAMP', T=673.3861, F=84.1, /
&RAMP ID='CONE-RAMP', T=675.2110, F=84.3, /
&RAMP ID='CONE-RAMP', T=677.0359, F=84.3, /
&RAMP ID='CONE-RAMP', T=678.8608, F=84.2, /
&RAMP ID='CONE-RAMP', T=680.6857, F=84.2, /
&RAMP ID='CONE-RAMP', T=682.5105, F=84.2, /
&RAMP ID='CONE-RAMP', T=684.3354, F=84.1, /
&RAMP ID='CONE-RAMP', T=686.1603, F=84.1, /
&RAMP ID='CONE-RAMP', T=687.9852, F=84.1, /
&RAMP ID='CONE-RAMP', T=689.8101, F=84.1, /
&RAMP ID='CONE-RAMP', T=691.6350, F=84.1, /
&RAMP ID='CONE-RAMP', T=693.4599, F=84.1, /
&RAMP ID='CONE-RAMP', T=695.2848, F=84.0, /
&RAMP ID='CONE-RAMP', T=697.1097, F=83.8, /
&RAMP ID='CONE-RAMP', T=698.9346, F=83.6, /
&RAMP ID='CONE-RAMP', T=700.7595, F=83.5, /
&RAMP ID='CONE-RAMP', T=702.5844, F=83.4, /
&RAMP ID='CONE-RAMP', T=704.4093, F=83.2, /
&RAMP ID='CONE-RAMP', T=706.2342, F=83.1, /
&RAMP ID='CONE-RAMP', T=708.0591, F=83.0, /
&RAMP ID='CONE-RAMP', T=709.8840, F=82.9, /
&RAMP ID='CONE-RAMP', T=711.7089, F=82.7, /
&RAMP ID='CONE-RAMP', T=713.5338, F=82.7, /
&RAMP ID='CONE-RAMP', T=715.3586, F=82.6, /
&RAMP ID='CONE-RAMP', T=717.1835, F=82.6, /
&RAMP ID='CONE-RAMP', T=719.0084, F=82.5, /
&RAMP ID='CONE-RAMP', T=720.8333, F=82.4, /
&RAMP ID='CONE-RAMP', T=722.6582, F=82.3, /
&RAMP ID='CONE-RAMP', T=724.4831, F=82.1, /
&RAMP ID='CONE-RAMP', T=726.3080, F=81.8, /
&RAMP ID='CONE-RAMP', T=728.1329, F=81.5, /
&RAMP ID='CONE-RAMP', T=729.9578, F=81.4, /
&RAMP ID='CONE-RAMP', T=731.7827, F=81.2, /
&RAMP ID='CONE-RAMP', T=733.6076, F=81.1, /
&RAMP ID='CONE-RAMP', T=735.4325, F=81.1, /
&RAMP ID='CONE-RAMP', T=737.2574, F=81.0, /
&RAMP ID='CONE-RAMP', T=739.0823, F=80.9, /
&RAMP ID='CONE-RAMP', T=740.9072, F=80.8, /
&RAMP ID='CONE-RAMP', T=742.7321, F=80.7, /
&RAMP ID='CONE-RAMP', T=744.5570, F=80.6, /
&RAMP ID='CONE-RAMP', T=746.3819, F=80.5, /
&RAMP ID='CONE-RAMP', T=748.2068, F=80.5, /
&RAMP ID='CONE-RAMP', T=750.0316, F=80.4, /
&RAMP ID='CONE-RAMP', T=751.8565, F=80.3, /
&RAMP ID='CONE-RAMP', T=753.6814, F=80.2, /
&RAMP ID='CONE-RAMP', T=755.5063, F=80.1, /
&RAMP ID='CONE-RAMP', T=757.3312, F=79.8, /
&RAMP ID='CONE-RAMP', T=759.1561, F=79.7, /
&RAMP ID='CONE-RAMP', T=760.9810, F=79.6, /
&RAMP ID='CONE-RAMP', T=762.8059, F=79.5, /
&RAMP ID='CONE-RAMP', T=764.6308, F=79.5, /
&RAMP ID='CONE-RAMP', T=766.4557, F=79.5, /
&RAMP ID='CONE-RAMP', T=768.2806, F=79.5, /
&RAMP ID='CONE-RAMP', T=770.1055, F=79.6, /
&RAMP ID='CONE-RAMP', T=771.9304, F=79.7, /
&RAMP ID='CONE-RAMP', T=773.7553, F=79.8, /
&RAMP ID='CONE-RAMP', T=775.5802, F=79.9, /
&RAMP ID='CONE-RAMP', T=777.4051, F=79.9, /
&RAMP ID='CONE-RAMP', T=779.2300, F=79.9, /
&RAMP ID='CONE-RAMP', T=781.0549, F=79.8, /
&RAMP ID='CONE-RAMP', T=782.8797, F=79.8, /
&RAMP ID='CONE-RAMP', T=784.7046, F=79.8, /
&RAMP ID='CONE-RAMP', T=786.5295, F=79.7, /
&RAMP ID='CONE-RAMP', T=788.3544, F=79.7, /
&RAMP ID='CONE-RAMP', T=790.1793, F=79.7, /
&RAMP ID='CONE-RAMP', T=792.0042, F=79.7, /
&RAMP ID='CONE-RAMP', T=793.8291, F=79.8, /
&RAMP ID='CONE-RAMP', T=795.6540, F=79.9, /
&RAMP ID='CONE-RAMP', T=797.4789, F=79.9, /
&RAMP ID='CONE-RAMP', T=799.3038, F=80.0, /
&RAMP ID='CONE-RAMP', T=801.1287, F=80.0, /
&RAMP ID='CONE-RAMP', T=802.9536, F=79.9, /
&RAMP ID='CONE-RAMP', T=804.7785, F=79.7, /
&RAMP ID='CONE-RAMP', T=806.6034, F=79.6, /
&RAMP ID='CONE-RAMP', T=808.4283, F=79.4, /
&RAMP ID='CONE-RAMP', T=810.2532, F=79.3, /
&RAMP ID='CONE-RAMP', T=812.0781, F=79.2, /
&RAMP ID='CONE-RAMP', T=813.9030, F=79.3, /
&RAMP ID='CONE-RAMP', T=815.7278, F=79.4, /
&RAMP ID='CONE-RAMP', T=817.5527, F=79.5, /
&RAMP ID='CONE-RAMP', T=819.3776, F=79.6, /
&RAMP ID='CONE-RAMP', T=821.2025, F=79.8, /
&RAMP ID='CONE-RAMP', T=823.0274, F=79.8, /
&RAMP ID='CONE-RAMP', T=824.8523, F=79.9, /
&RAMP ID='CONE-RAMP', T=826.6772, F=80.0, /
&RAMP ID='CONE-RAMP', T=828.5021, F=80.2, /
&RAMP ID='CONE-RAMP', T=830.3270, F=80.3, /
&RAMP ID='CONE-RAMP', T=832.1519, F=80.5, /
&RAMP ID='CONE-RAMP', T=833.9768, F=80.6, /
&RAMP ID='CONE-RAMP', T=835.8017, F=80.6, /
&RAMP ID='CONE-RAMP', T=837.6266, F=80.5, /
&RAMP ID='CONE-RAMP', T=839.4515, F=80.3, /
&RAMP ID='CONE-RAMP', T=841.2764, F=80.1, /
&RAMP ID='CONE-RAMP', T=843.1013, F=80.0, /
&RAMP ID='CONE-RAMP', T=844.9262, F=80.0, /
&RAMP ID='CONE-RAMP', T=846.7511, F=80.0, /
&RAMP ID='CONE-RAMP', T=848.5759, F=80.0, /
&RAMP ID='CONE-RAMP', T=850.4008, F=80.1, /
&RAMP ID='CONE-RAMP', T=852.2257, F=80.0, /
&RAMP ID='CONE-RAMP', T=854.0506, F=80.0, /
&RAMP ID='CONE-RAMP', T=855.8755, F=79.8, /
&RAMP ID='CONE-RAMP', T=857.7004, F=79.7, /
&RAMP ID='CONE-RAMP', T=859.5253, F=79.5, /
&RAMP ID='CONE-RAMP', T=861.3502, F=79.4, /
&RAMP ID='CONE-RAMP', T=863.1751, F=79.3, /
&RAMP ID='CONE-RAMP', T=865.0000, F=79.3, /
&RAMP ID='CONE-RAMP', T=866.8249, F=79.2, /
&RAMP ID='CONE-RAMP', T=868.6498, F=79.2, /
&RAMP ID='CONE-RAMP', T=870.4747, F=79.1, /
&RAMP ID='CONE-RAMP', T=872.2996, F=79.1, /
&RAMP ID='CONE-RAMP', T=874.1245, F=79.0, /
&RAMP ID='CONE-RAMP', T=875.9494, F=78.9, /
&RAMP ID='CONE-RAMP', T=877.7743, F=78.7, /
&RAMP ID='CONE-RAMP', T=879.5992, F=78.6, /
&RAMP ID='CONE-RAMP', T=881.4241, F=78.6, /
&RAMP ID='CONE-RAMP', T=883.2489, F=78.6, /
&RAMP ID='CONE-RAMP', T=885.0738, F=78.6, /
&RAMP ID='CONE-RAMP', T=886.8987, F=78.7, /
&RAMP ID='CONE-RAMP', T=888.7236, F=78.8, /
&RAMP ID='CONE-RAMP', T=890.5485, F=78.7, /
&RAMP ID='CONE-RAMP', T=892.3734, F=78.6, /
&RAMP ID='CONE-RAMP', T=894.1983, F=78.6, /
&RAMP ID='CONE-RAMP', T=896.0232, F=78.4, /
&RAMP ID='CONE-RAMP', T=897.8481, F=78.3, /
&RAMP ID='CONE-RAMP', T=899.6730, F=78.3, /
&RAMP ID='CONE-RAMP', T=901.4979, F=78.3, /
&RAMP ID='CONE-RAMP', T=903.3228, F=78.3, /
&RAMP ID='CONE-RAMP', T=905.1477, F=78.2, /
&RAMP ID='CONE-RAMP', T=906.9726, F=78.0, /
&RAMP ID='CONE-RAMP', T=908.7975, F=77.8, /
&RAMP ID='CONE-RAMP', T=910.6224, F=77.6, /
&RAMP ID='CONE-RAMP', T=912.4473, F=77.3, /
&RAMP ID='CONE-RAMP', T=914.2722, F=77.1, /
&RAMP ID='CONE-RAMP', T=916.0970, F=77.1, /
&RAMP ID='CONE-RAMP', T=917.9219, F=77.1, /
&RAMP ID='CONE-RAMP', T=919.7468, F=77.1, /
&RAMP ID='CONE-RAMP', T=921.5717, F=77.1, /
&RAMP ID='CONE-RAMP', T=923.3966, F=77.0, /
&RAMP ID='CONE-RAMP', T=925.2215, F=76.9, /
&RAMP ID='CONE-RAMP', T=927.0464, F=76.8, /
&RAMP ID='CONE-RAMP', T=928.8713, F=76.7, /
&RAMP ID='CONE-RAMP', T=930.6962, F=76.6, /
&RAMP ID='CONE-RAMP', T=932.5211, F=76.5, /
&RAMP ID='CONE-RAMP', T=934.3460, F=76.4, /
&RAMP ID='CONE-RAMP', T=936.1709, F=76.3, /
&RAMP ID='CONE-RAMP', T=937.9958, F=76.2, /
&RAMP ID='CONE-RAMP', T=939.8207, F=76.1, /
&RAMP ID='CONE-RAMP', T=941.6456, F=76.0, /
&RAMP ID='CONE-RAMP', T=943.4705, F=76.0, /
&RAMP ID='CONE-RAMP', T=945.2954, F=76.1, /
&RAMP ID='CONE-RAMP', T=947.1203, F=76.2, /
&RAMP ID='CONE-RAMP', T=948.9451, F=76.3, /
&RAMP ID='CONE-RAMP', T=950.7700, F=76.4, /
&RAMP ID='CONE-RAMP', T=952.5949, F=76.4, /
&RAMP ID='CONE-RAMP', T=954.4198, F=76.5, /
&RAMP ID='CONE-RAMP', T=956.2447, F=76.4, /
&RAMP ID='CONE-RAMP', T=958.0696, F=76.3, /
&RAMP ID='CONE-RAMP', T=959.8945, F=76.3, /
&RAMP ID='CONE-RAMP', T=961.7194, F=76.3, /
&RAMP ID='CONE-RAMP', T=963.5443, F=76.3, /
&RAMP ID='CONE-RAMP', T=965.3692, F=76.3, /
&RAMP ID='CONE-RAMP', T=967.1941, F=76.4, /
&RAMP ID='CONE-RAMP', T=969.0190, F=76.5, /
&RAMP ID='CONE-RAMP', T=970.8439, F=76.5, /
&RAMP ID='CONE-RAMP', T=972.6688, F=76.4, /
&RAMP ID='CONE-RAMP', T=974.4937, F=76.3, /
&RAMP ID='CONE-RAMP', T=976.3186, F=76.2, /
&RAMP ID='CONE-RAMP', T=978.1435, F=76.1, /
&RAMP ID='CONE-RAMP', T=979.9684, F=76.1, /
&RAMP ID='CONE-RAMP', T=981.7932, F=75.9, /
&RAMP ID='CONE-RAMP', T=983.6181, F=75.9, /
&RAMP ID='CONE-RAMP', T=985.4430, F=76.0, /
&RAMP ID='CONE-RAMP', T=987.2679, F=76.1, /
&RAMP ID='CONE-RAMP', T=989.0928, F=76.1, /
&RAMP ID='CONE-RAMP', T=990.9177, F=76.2, /
&RAMP ID='CONE-RAMP', T=992.7426, F=76.4, /
&RAMP ID='CONE-RAMP', T=994.5675, F=76.4, /
&RAMP ID='CONE-RAMP', T=996.3924, F=76.4, /
&RAMP ID='CONE-RAMP', T=998.2173, F=76.3, /
&RAMP ID='CONE-RAMP', T=1000.0422, F=76.2, /
&RAMP ID='CONE-RAMP', T=1001.8671, F=76.0, /
&RAMP ID='CONE-RAMP', T=1003.6920, F=75.9, /
&RAMP ID='CONE-RAMP', T=1005.5169, F=75.7, /
&RAMP ID='CONE-RAMP', T=1007.3418, F=75.5, /
&RAMP ID='CONE-RAMP', T=1009.1667, F=75.4, /
&RAMP ID='CONE-RAMP', T=1010.9916, F=75.4, /
&RAMP ID='CONE-RAMP', T=1012.8165, F=75.5, /
&RAMP ID='CONE-RAMP', T=1014.6414, F=75.6, /
&RAMP ID='CONE-RAMP', T=1016.4662, F=75.7, /
&RAMP ID='CONE-RAMP', T=1018.2911, F=75.7, /
&RAMP ID='CONE-RAMP', T=1020.1160, F=75.8, /
&RAMP ID='CONE-RAMP', T=1021.9409, F=75.8, /
&RAMP ID='CONE-RAMP', T=1023.7658, F=75.9, /
&RAMP ID='CONE-RAMP', T=1025.5907, F=76.1, /
&RAMP ID='CONE-RAMP', T=1027.4156, F=76.2, /
&RAMP ID='CONE-RAMP', T=1029.2405, F=76.3, /
&RAMP ID='CONE-RAMP', T=1031.0654, F=76.4, /
&RAMP ID='CONE-RAMP', T=1032.8903, F=76.5, /
&RAMP ID='CONE-RAMP', T=1034.7152, F=76.4, /
&RAMP ID='CONE-RAMP', T=1036.5401, F=76.4, /
&RAMP ID='CONE-RAMP', T=1038.3650, F=76.4, /
&RAMP ID='CONE-RAMP', T=1040.1899, F=76.5, /
&RAMP ID='CONE-RAMP', T=1042.0148, F=76.5, /
&RAMP ID='CONE-RAMP', T=1043.8397, F=76.5, /
&RAMP ID='CONE-RAMP', T=1045.6646, F=76.6, /
&RAMP ID='CONE-RAMP', T=1047.4895, F=76.6, /
&RAMP ID='CONE-RAMP', T=1049.3143, F=76.7, /
&RAMP ID='CONE-RAMP', T=1051.1392, F=76.8, /
&RAMP ID='CONE-RAMP', T=1052.9641, F=76.8, /
&RAMP ID='CONE-RAMP', T=1054.7890, F=76.7, /
&RAMP ID='CONE-RAMP', T=1056.6139, F=76.7, /
&RAMP ID='CONE-RAMP', T=1058.4388, F=76.7, /
&RAMP ID='CONE-RAMP', T=1060.2637, F=76.5, /
&RAMP ID='CONE-RAMP', T=1062.0886, F=76.4, /
&RAMP ID='CONE-RAMP', T=1063.9135, F=76.3, /
&RAMP ID='CONE-RAMP', T=1065.7384, F=76.2, /
&RAMP ID='CONE-RAMP', T=1067.5633, F=76.1, /
&RAMP ID='CONE-RAMP', T=1069.3882, F=76.2, /
&RAMP ID='CONE-RAMP', T=1071.2131, F=76.2, /
&RAMP ID='CONE-RAMP', T=1073.0380, F=76.2, /
&RAMP ID='CONE-RAMP', T=1074.8629, F=76.0, /
&RAMP ID='CONE-RAMP', T=1076.6878, F=75.9, /
&RAMP ID='CONE-RAMP', T=1078.5127, F=75.7, /
&RAMP ID='CONE-RAMP', T=1080.3376, F=75.4, /
&RAMP ID='CONE-RAMP', T=1082.1624, F=75.2, /
&RAMP ID='CONE-RAMP', T=1083.9873, F=75.1, /
&RAMP ID='CONE-RAMP', T=1085.8122, F=75.1, /
&RAMP ID='CONE-RAMP', T=1087.6371, F=75.1, /
&RAMP ID='CONE-RAMP', T=1089.4620, F=75.2, /
&RAMP ID='CONE-RAMP', T=1091.2869, F=75.3, /
&RAMP ID='CONE-RAMP', T=1093.1118, F=75.4, /
&RAMP ID='CONE-RAMP', T=1094.9367, F=75.6, /
&RAMP ID='CONE-RAMP', T=1096.7616, F=75.8, /
&RAMP ID='CONE-RAMP', T=1098.5865, F=76.0, /
&RAMP ID='CONE-RAMP', T=1100.4114, F=76.1, /
&RAMP ID='CONE-RAMP', T=1102.2363, F=76.3, /
&RAMP ID='CONE-RAMP', T=1104.0612, F=76.3, /
&RAMP ID='CONE-RAMP', T=1105.8861, F=76.4, /
&RAMP ID='CONE-RAMP', T=1107.7110, F=76.4, /
&RAMP ID='CONE-RAMP', T=1109.5359, F=76.3, /
&RAMP ID='CONE-RAMP', T=1111.3608, F=76.4, /
&RAMP ID='CONE-RAMP', T=1113.1857, F=76.3, /
&RAMP ID='CONE-RAMP', T=1115.0105, F=76.3, /
&RAMP ID='CONE-RAMP', T=1116.8354, F=76.2, /
&RAMP ID='CONE-RAMP', T=1118.6603, F=76.1, /
&RAMP ID='CONE-RAMP', T=1120.4852, F=76.0, /
&RAMP ID='CONE-RAMP', T=1122.3101, F=75.9, /
&RAMP ID='CONE-RAMP', T=1124.1350, F=75.8, /
&RAMP ID='CONE-RAMP', T=1125.9599, F=75.8, /
&RAMP ID='CONE-RAMP', T=1127.7848, F=75.8, /
&RAMP ID='CONE-RAMP', T=1129.6097, F=75.7, /
&RAMP ID='CONE-RAMP', T=1131.4346, F=75.6, /
&RAMP ID='CONE-RAMP', T=1133.2595, F=75.5, /
&RAMP ID='CONE-RAMP', T=1135.0844, F=75.4, /
&RAMP ID='CONE-RAMP', T=1136.9093, F=75.3, /
&RAMP ID='CONE-RAMP', T=1138.7342, F=75.2, /
&RAMP ID='CONE-RAMP', T=1140.5591, F=75.1, /
&RAMP ID='CONE-RAMP', T=1142.3840, F=75.1, /
&RAMP ID='CONE-RAMP', T=1144.2089, F=75.1, /
&RAMP ID='CONE-RAMP', T=1146.0338, F=75.0, /
&RAMP ID='CONE-RAMP', T=1147.8586, F=75.0, /
&RAMP ID='CONE-RAMP', T=1149.6835, F=74.9, /
&RAMP ID='CONE-RAMP', T=1151.5084, F=74.7, /
&RAMP ID='CONE-RAMP', T=1153.3333, F=74.7, /
&RAMP ID='CONE-RAMP', T=1155.1582, F=74.6, /
&RAMP ID='CONE-RAMP', T=1156.9831, F=74.6, /
&RAMP ID='CONE-RAMP', T=1158.8080, F=74.6, /
&RAMP ID='CONE-RAMP', T=1160.6329, F=74.6, /
&RAMP ID='CONE-RAMP', T=1162.4578, F=74.7, /
&RAMP ID='CONE-RAMP', T=1164.2827, F=74.6, /
&RAMP ID='CONE-RAMP', T=1166.1076, F=74.5, /
&RAMP ID='CONE-RAMP', T=1167.9325, F=74.4, /
&RAMP ID='CONE-RAMP', T=1169.7574, F=74.3, /
&RAMP ID='CONE-RAMP', T=1171.5823, F=74.3, /
&RAMP ID='CONE-RAMP', T=1173.4072, F=74.3, /
&RAMP ID='CONE-RAMP', T=1175.2321, F=74.3, /
&RAMP ID='CONE-RAMP', T=1177.0570, F=74.3, /
&RAMP ID='CONE-RAMP', T=1178.8819, F=74.3, /
&RAMP ID='CONE-RAMP', T=1180.7068, F=74.3, /
&RAMP ID='CONE-RAMP', T=1182.5316, F=74.3, /
&RAMP ID='CONE-RAMP', T=1184.3565, F=74.3, /
&RAMP ID='CONE-RAMP', T=1186.1814, F=74.4, /
&RAMP ID='CONE-RAMP', T=1188.0063, F=74.5, /
&RAMP ID='CONE-RAMP', T=1189.8312, F=74.6, /
&RAMP ID='CONE-RAMP', T=1191.6561, F=74.6, /
&RAMP ID='CONE-RAMP', T=1193.4810, F=74.5, /
&RAMP ID='CONE-RAMP', T=1195.3059, F=74.5, /
&RAMP ID='CONE-RAMP', T=1197.1308, F=74.4, /
&RAMP ID='CONE-RAMP', T=1198.9557, F=74.3, /
&RAMP ID='CONE-RAMP', T=1200.7806, F=74.4, /
&RAMP ID='CONE-RAMP', T=1202.6055, F=74.5, /
&RAMP ID='CONE-RAMP', T=1204.4304, F=74.7, /
&RAMP ID='CONE-RAMP', T=1206.2553, F=75.0, /
&RAMP ID='CONE-RAMP', T=1208.0802, F=75.2, /
&RAMP ID='CONE-RAMP', T=1209.9051, F=75.3, /
&RAMP ID='CONE-RAMP', T=1211.7300, F=75.4, /
&RAMP ID='CONE-RAMP', T=1213.5549, F=75.4, /
&RAMP ID='CONE-RAMP', T=1215.3797, F=75.4, /