&HEAD CHID='FSRI_Engineered_Flooring', /
&TIME DT=1., T_END=20000.0 /
&DUMP DT_CTRL=1.0, DT_DEVC=1.0, DT_HRR=1.0, SIG_FIGS=4, SIG_FIGS_EXP=2, /
&MISC SOLID_PHASE_ONLY=.TRUE., TMPA=27., /
&MESH ID='MESH', IJK=3,3,3, XB=0.,0.3,0.,0.3,0.,0.3, /
&REAC ID='PROPANE', FUEL='PROPANE', /
&MATL ID='BACKING', CONDUCTIVITY=0.10, DENSITY=65., EMISSIVITY=0.9, SPECIFIC_HEAT=1.14, /
&MATL ID='SAMPLE', CONDUCTIVITY=0.1340, DENSITY=815.0, EMISSIVITY=1.0000, SPECIFIC_HEAT=1604.0000, /
&RAMP ID='CONE-RAMP', T=0.0000, F=45.7, /
&RAMP ID='CONE-RAMP', T=1.0772, F=67.5, /
&RAMP ID='CONE-RAMP', T=2.1544, F=92.4, /
&RAMP ID='CONE-RAMP', T=3.2315, F=119.6, /
&RAMP ID='CONE-RAMP', T=4.3087, F=148.1, /
&RAMP ID='CONE-RAMP', T=5.3859, F=177.3, /
&RAMP ID='CONE-RAMP', T=6.4631, F=204.2, /
&RAMP ID='CONE-RAMP', T=7.5403, F=227.2, /
&RAMP ID='CONE-RAMP', T=8.6174, F=245.6, /
&RAMP ID='CONE-RAMP', T=9.6946, F=259.4, /
&RAMP ID='CONE-RAMP', T=10.7718, F=268.7, /
&RAMP ID='CONE-RAMP', T=11.8490, F=274.4, /
&RAMP ID='CONE-RAMP', T=12.9262, F=277.4, /
&RAMP ID='CONE-RAMP', T=14.0034, F=278.5, /
&RAMP ID='CONE-RAMP', T=15.0805, F=278.6, /
&RAMP ID='CONE-RAMP', T=16.1577, F=278.5, /
&RAMP ID='CONE-RAMP', T=17.2349, F=278.6, /
&RAMP ID='CONE-RAMP', T=18.3121, F=279.0, /
&RAMP ID='CONE-RAMP', T=19.3893, F=279.7, /
&RAMP ID='CONE-RAMP', T=20.4664, F=281.3, /
&RAMP ID='CONE-RAMP', T=21.5436, F=283.3, /
&RAMP ID='CONE-RAMP', T=22.6208, F=285.3, /
&RAMP ID='CONE-RAMP', T=23.6980, F=287.7, /
&RAMP ID='CONE-RAMP', T=24.7752, F=290.3, /
&RAMP ID='CONE-RAMP', T=25.8523, F=292.9, /
&RAMP ID='CONE-RAMP', T=26.9295, F=295.3, /
&RAMP ID='CONE-RAMP', T=28.0067, F=296.9, /
&RAMP ID='CONE-RAMP', T=29.0839, F=298.2, /
&RAMP ID='CONE-RAMP', T=30.1611, F=298.9, /
&RAMP ID='CONE-RAMP', T=31.2383, F=299.0, /
&RAMP ID='CONE-RAMP', T=32.3154, F=298.7, /
&RAMP ID='CONE-RAMP', T=33.3926, F=297.5, /
&RAMP ID='CONE-RAMP', T=34.4698, F=296.1, /
&RAMP ID='CONE-RAMP', T=35.5470, F=294.0, /
&RAMP ID='CONE-RAMP', T=36.6242, F=291.3, /
&RAMP ID='CONE-RAMP', T=37.7013, F=288.5, /
&RAMP ID='CONE-RAMP', T=38.7785, F=285.4, /
&RAMP ID='CONE-RAMP', T=39.8557, F=281.9, /
&RAMP ID='CONE-RAMP', T=40.9329, F=278.1, /
&RAMP ID='CONE-RAMP', T=42.0101, F=274.1, /
&RAMP ID='CONE-RAMP', T=43.0872, F=270.1, /
&RAMP ID='CONE-RAMP', T=44.1644, F=265.6, /
&RAMP ID='CONE-RAMP', T=45.2416, F=261.2, /
&RAMP ID='CONE-RAMP', T=46.3188, F=256.9, /
&RAMP ID='CONE-RAMP', T=47.3960, F=252.5, /
&RAMP ID='CONE-RAMP', T=48.4732, F=248.5, /
&RAMP ID='CONE-RAMP', T=49.5503, F=244.4, /
&RAMP ID='CONE-RAMP', T=50.6275, F=240.3, /
&RAMP ID='CONE-RAMP', T=51.7047, F=236.5, /
&RAMP ID='CONE-RAMP', T=52.7819, F=232.7, /
&RAMP ID='CONE-RAMP', T=53.8591, F=229.0, /
&RAMP ID='CONE-RAMP', T=54.9362, F=225.4, /
&RAMP ID='CONE-RAMP', T=56.0134, F=222.0, /
&RAMP ID='CONE-RAMP', T=57.0906, F=218.8, /
&RAMP ID='CONE-RAMP', T=58.1678, F=215.6, /
&RAMP ID='CONE-RAMP', T=59.2450, F=212.4, /
&RAMP ID='CONE-RAMP', T=60.3221, F=209.2, /
&RAMP ID='CONE-RAMP', T=61.3993, F=206.4, /
&RAMP ID='CONE-RAMP', T=62.4765, F=203.4, /
&RAMP ID='CONE-RAMP', T=63.5537, F=200.8, /
&RAMP ID='CONE-RAMP', T=64.6309, F=198.4, /
&RAMP ID='CONE-RAMP', T=65.7081, F=196.1, /
&RAMP ID='CONE-RAMP', T=66.7852, F=193.6, /
&RAMP ID='CONE-RAMP', T=67.8624, F=191.2, /
&RAMP ID='CONE-RAMP', T=68.9396, F=189.1, /
&RAMP ID='CONE-RAMP', T=70.0168, F=187.0, /
&RAMP ID='CONE-RAMP', T=71.0940, F=185.1, /
&RAMP ID='CONE-RAMP', T=72.1711, F=183.2, /
&RAMP ID='CONE-RAMP', T=73.2483, F=181.4, /
&RAMP ID='CONE-RAMP', T=74.3255, F=179.7, /
&RAMP ID='CONE-RAMP', T=75.4027, F=177.9, /
&RAMP ID='CONE-RAMP', T=76.4799, F=176.3, /
&RAMP ID='CONE-RAMP', T=77.5570, F=174.8, /
&RAMP ID='CONE-RAMP', T=78.6342, F=173.3, /
&RAMP ID='CONE-RAMP', T=79.7114, F=171.8, /
&RAMP ID='CONE-RAMP', T=80.7886, F=170.4, /
&RAMP ID='CONE-RAMP', T=81.8658, F=169.0, /
&RAMP ID='CONE-RAMP', T=82.9430, F=167.7, /
&RAMP ID='CONE-RAMP', T=84.0201, F=166.3, /
&RAMP ID='CONE-RAMP', T=85.0973, F=165.1, /
&RAMP ID='CONE-RAMP', T=86.1745, F=164.0, /
&RAMP ID='CONE-RAMP', T=87.2517, F=162.9, /
&RAMP ID='CONE-RAMP', T=88.3289, F=162.0, /
&RAMP ID='CONE-RAMP', T=89.4060, F=161.1, /
&RAMP ID='CONE-RAMP', T=90.4832, F=160.2, /
&RAMP ID='CONE-RAMP', T=91.5604, F=159.4, /
&RAMP ID='CONE-RAMP', T=92.6376, F=158.6, /
&RAMP ID='CONE-RAMP', T=93.7148, F=157.8, /
&RAMP ID='CONE-RAMP', T=94.7919, F=157.0, /
&RAMP ID='CONE-RAMP', T=95.8691, F=156.2, /
&RAMP ID='CONE-RAMP', T=96.9463, F=155.5, /
&RAMP ID='CONE-RAMP', T=98.0235, F=154.8, /
&RAMP ID='CONE-RAMP', T=99.1007, F=154.1, /
&RAMP ID='CONE-RAMP', T=100.1779, F=153.5, /
&RAMP ID='CONE-RAMP', T=101.2550, F=153.0, /
&RAMP ID='CONE-RAMP', T=102.3322, F=152.6, /
&RAMP ID='CONE-RAMP', T=103.4094, F=152.3, /
&RAMP ID='CONE-RAMP', T=104.4866, F=152.1, /
&RAMP ID='CONE-RAMP', T=105.5638, F=151.8, /
&RAMP ID='CONE-RAMP', T=106.6409, F=151.6, /
&RAMP ID='CONE-RAMP', T=107.7181, F=151.4, /
&RAMP ID='CONE-RAMP', T=108.7953, F=151.3, /
&RAMP ID='CONE-RAMP', T=109.8725, F=151.2, /
&RAMP ID='CONE-RAMP', T=110.9497, F=151.1, /
&RAMP ID='CONE-RAMP', T=112.0268, F=151.0, /
&RAMP ID='CONE-RAMP', T=113.1040, F=150.7, /
&RAMP ID='CONE-RAMP', T=114.1812, F=150.6, /
&RAMP ID='CONE-RAMP', T=115.2584, F=150.4, /
&RAMP ID='CONE-RAMP', T=116.3356, F=150.2, /
&RAMP ID='CONE-RAMP', T=117.4128, F=150.1, /
&RAMP ID='CONE-RAMP', T=118.4899, F=149.9, /
&RAMP ID='CONE-RAMP', T=119.5671, F=149.8, /
&RAMP ID='CONE-RAMP', T=120.6443, F=149.6, /
&RAMP ID='CONE-RAMP', T=121.7215, F=149.3, /
&RAMP ID='CONE-RAMP', T=122.7987, F=149.2, /
&RAMP ID='CONE-RAMP', T=123.8758, F=149.1, /
&RAMP ID='CONE-RAMP', T=124.9530, F=148.9, /
&RAMP ID='CONE-RAMP', T=126.0302, F=148.8, /
&RAMP ID='CONE-RAMP', T=127.1074, F=148.8, /
&RAMP ID='CONE-RAMP', T=128.1846, F=148.8, /
&RAMP ID='CONE-RAMP', T=129.2617, F=148.7, /
&RAMP ID='CONE-RAMP', T=130.3389, F=148.7, /
&RAMP ID='CONE-RAMP', T=131.4161, F=148.7, /
&RAMP ID='CONE-RAMP', T=132.4933, F=148.7, /
&RAMP ID='CONE-RAMP', T=133.5705, F=148.6, /
&RAMP ID='CONE-RAMP', T=134.6477, F=148.7, /
&RAMP ID='CONE-RAMP', T=135.7248, F=148.8, /
&RAMP ID='CONE-RAMP', T=136.8020, F=148.9, /
&RAMP ID='CONE-RAMP', T=137.8792, F=148.9, /
&RAMP ID='CONE-RAMP', T=138.9564, F=149.0, /
&RAMP ID='CONE-RAMP', T=140.0336, F=149.2, /
&RAMP ID='CONE-RAMP', T=141.1107, F=149.2, /
&RAMP ID='CONE-RAMP', T=142.1879, F=149.4, /
&RAMP ID='CONE-RAMP', T=143.2651, F=149.4, /
&RAMP ID='CONE-RAMP', T=144.3423, F=149.6, /
&RAMP ID='CONE-RAMP', T=145.4195, F=149.6, /
&RAMP ID='CONE-RAMP', T=146.4966, F=149.7, /
&RAMP ID='CONE-RAMP', T=147.5738, F=149.7, /
&RAMP ID='CONE-RAMP', T=148.6510, F=149.6, /
&RAMP ID='CONE-RAMP', T=149.7282, F=149.5, /
&RAMP ID='CONE-RAMP', T=150.8054, F=149.3, /
&RAMP ID='CONE-RAMP', T=151.8826, F=149.3, /
&RAMP ID='CONE-RAMP', T=152.9597, F=149.2, /
&RAMP ID='CONE-RAMP', T=154.0369, F=149.1, /
&RAMP ID='CONE-RAMP', T=155.1141, F=149.1, /
&RAMP ID='CONE-RAMP', T=156.1913, F=149.0, /
&RAMP ID='CONE-RAMP', T=157.2685, F=149.1, /
&RAMP ID='CONE-RAMP', T=158.3456, F=149.2, /
&RAMP ID='CONE-RAMP', T=159.4228, F=149.3, /
&RAMP ID='CONE-RAMP', T=160.5000, F=149.5, /
&RAMP ID='CONE-RAMP', T=161.5772, F=149.6, /
&RAMP ID='CONE-RAMP', T=162.6544, F=149.6, /
&RAMP ID='CONE-RAMP', T=163.7315, F=149.7, /
&RAMP ID='CONE-RAMP', T=164.8087, F=149.6, /
&RAMP ID='CONE-RAMP', T=165.8859, F=149.5, /
&RAMP ID='CONE-RAMP', T=166.9631, F=149.3, /
&RAMP ID='CONE-RAMP', T=168.0403, F=149.2, /
&RAMP ID='CONE-RAMP', T=169.1174, F=149.1, /
&RAMP ID='CONE-RAMP', T=170.1946, F=149.0, /
&RAMP ID='CONE-RAMP', T=171.2718, F=149.0, /
&RAMP ID='CONE-RAMP', T=172.3490, F=149.0, /
&RAMP ID='CONE-RAMP', T=173.4262, F=148.9, /
&RAMP ID='CONE-RAMP', T=174.5034, F=149.0, /
&RAMP ID='CONE-RAMP', T=175.5805, F=149.1, /
&RAMP ID='CONE-RAMP', T=176.6577, F=149.2, /
&RAMP ID='CONE-RAMP', T=177.7349, F=149.2, /
&RAMP ID='CONE-RAMP', T=178.8121, F=149.3, /
&RAMP ID='CONE-RAMP', T=179.8893, F=149.3, /
&RAMP ID='CONE-RAMP', T=180.9664, F=149.2, /
&RAMP ID='CONE-RAMP', T=182.0436, F=149.3, /
&RAMP ID='CONE-RAMP', T=183.1208, F=149.4, /
&RAMP ID='CONE-RAMP', T=184.1980, F=149.7, /
&RAMP ID='CONE-RAMP', T=185.2752, F=149.7, /
&RAMP ID='CONE-RAMP', T=186.3523, F=150.0, /
&RAMP ID='CONE-RAMP', T=187.4295, F=150.1, /
&RAMP ID='CONE-RAMP', T=188.5067, F=150.3, /
&RAMP ID='CONE-RAMP', T=189.5839, F=150.4, /
&RAMP ID='CONE-RAMP', T=190.6611, F=150.5, /
&RAMP ID='CONE-RAMP', T=191.7383, F=150.7, /
&RAMP ID='CONE-RAMP', T=192.8154, F=150.8, /
&RAMP ID='CONE-RAMP', T=193.8926, F=151.0, /
&RAMP ID='CONE-RAMP', T=194.9698, F=151.2, /
&RAMP ID='CONE-RAMP', T=196.0470, F=151.5, /
&RAMP ID='CONE-RAMP', T=197.1242, F=151.9, /
&RAMP ID='CONE-RAMP', T=198.2013, F=152.3, /
&RAMP ID='CONE-RAMP', T=199.2785, F=152.6, /
&RAMP ID='CONE-RAMP', T=200.3557, F=153.0, /
&RAMP ID='CONE-RAMP', T=201.4329, F=153.5, /
&RAMP ID='CONE-RAMP', T=202.5101, F=153.8, /
&RAMP ID='CONE-RAMP', T=203.5872, F=154.0, /
&RAMP ID='CONE-RAMP', T=204.6644, F=154.3, /
&RAMP ID='CONE-RAMP', T=205.7416, F=154.5, /
&RAMP ID='CONE-RAMP', T=206.8188, F=154.8, /
&RAMP ID='CONE-RAMP', T=207.8960, F=155.1, /
&RAMP ID='CONE-RAMP', T=208.9732, F=155.4, /
&RAMP ID='CONE-RAMP', T=210.0503, F=155.9, /
&RAMP ID='CONE-RAMP', T=211.1275, F=156.4, /
&RAMP ID='CONE-RAMP', T=212.2047, F=156.8, /
&RAMP ID='CONE-RAMP', T=213.2819, F=157.5, /
&RAMP ID='CONE-RAMP', T=214.3591, F=158.1, /
&RAMP ID='CONE-RAMP', T=215.4362, F=158.7, /
&RAMP ID='CONE-RAMP', T=216.5134, F=159.4, /
&RAMP ID='CONE-RAMP', T=217.5906, F=160.1, /
&RAMP ID='CONE-RAMP', T=218.6678, F=160.9, /
&RAMP ID='CONE-RAMP', T=219.7450, F=161.6, /
&RAMP ID='CONE-RAMP', T=220.8221, F=162.2, /
&RAMP ID='CONE-RAMP', T=221.8993, F=163.1, /
&RAMP ID='CONE-RAMP', T=222.9765, F=163.9, /
&RAMP ID='CONE-RAMP', T=224.0537, F=164.6, /
&RAMP ID='CONE-RAMP', T=225.1309, F=165.3, /
&RAMP ID='CONE-RAMP', T=226.2081, F=166.1, /
&RAMP ID='CONE-RAMP', T=227.2852, F=166.8, /
&RAMP ID='CONE-RAMP', T=228.3624, F=167.5, /
&RAMP ID='CONE-RAMP', T=229.4396, F=168.2, /
&RAMP ID='CONE-RAMP', T=230.5168, F=169.0, /
&RAMP ID='CONE-RAMP', T=231.5940, F=169.9, /
&RAMP ID='CONE-RAMP', T=232.6711, F=170.6, /
&RAMP ID='CONE-RAMP', T=233.7483, F=171.6, /
&RAMP ID='CONE-RAMP', T=234.8255, F=172.5, /
&RAMP ID='CONE-RAMP', T=235.9027, F=173.4, /
&RAMP ID='CONE-RAMP', T=236.9799, F=174.5, /
&RAMP ID='CONE-RAMP', T=238.0570, F=175.7, /
&RAMP ID='CONE-RAMP', T=239.1342, F=176.9, /
&RAMP ID='CONE-RAMP', T=240.2114, F=178.0, /
&RAMP ID='CONE-RAMP', T=241.2886, F=179.1, /
&RAMP ID='CONE-RAMP', T=242.3658, F=180.4, /
&RAMP ID='CONE-RAMP', T=243.4430, F=181.6, /
&RAMP ID='CONE-RAMP', T=244.5201, F=183.0, /
&RAMP ID='CONE-RAMP', T=245.5973, F=184.4, /
&RAMP ID='CONE-RAMP', T=246.6745, F=185.8, /
&RAMP ID='CONE-RAMP', T=247.7517, F=187.1, /
&RAMP ID='CONE-RAMP', T=248.8289, F=188.4, /
&RAMP ID='CONE-RAMP', T=249.9060, F=189.9, /
&RAMP ID='CONE-RAMP', T=250.9832, F=191.4, /
&RAMP ID='CONE-RAMP', T=252.0604, F=192.8, /
&RAMP ID='CONE-RAMP', T=253.1376, F=194.1, /
&RAMP ID='CONE-RAMP', T=254.2148, F=195.5, /
&RAMP ID='CONE-RAMP', T=255.2919, F=196.6, /
&RAMP ID='CONE-RAMP', T=256.3691, F=197.9, /
&RAMP ID='CONE-RAMP', T=257.4463, F=199.1, /
&RAMP ID='CONE-RAMP', T=258.5235, F=200.5, /
&RAMP ID='CONE-RAMP', T=259.6007, F=201.8, /
&RAMP ID='CONE-RAMP', T=260.6779, F=203.1, /
&RAMP ID='CONE-RAMP', T=261.7550, F=204.5, /
&RAMP ID='CONE-RAMP', T=262.8322, F=206.0, /
&RAMP ID='CONE-RAMP', T=263.9094, F=207.6, /
&RAMP ID='CONE-RAMP', T=264.9866, F=209.4, /
&RAMP ID='CONE-RAMP', T=266.0638, F=211.3, /
&RAMP ID='CONE-RAMP', T=267.1409, F=213.2, /
&RAMP ID='CONE-RAMP', T=268.2181, F=215.1, /
&RAMP ID='CONE-RAMP', T=269.2953, F=217.0, /
&RAMP ID='CONE-RAMP', T=270.3725, F=218.9, /
&RAMP ID='CONE-RAMP', T=271.4497, F=221.1, /
&RAMP ID='CONE-RAMP', T=272.5268, F=223.1, /
&RAMP ID='CONE-RAMP', T=273.6040, F=225.0, /
&RAMP ID='CONE-RAMP', T=274.6812, F=226.9, /
&RAMP ID='CONE-RAMP', T=275.7584, F=228.6, /
&RAMP ID='CONE-RAMP', T=276.8356, F=230.3, /
&RAMP ID='CONE-RAMP', T=277.9128, F=232.2, /
&RAMP ID='CONE-RAMP', T=278.9899, F=234.1, /
&RAMP ID='CONE-RAMP', T=280.0671, F=235.8, /
&RAMP ID='CONE-RAMP', T=281.1443, F=237.8, /
&RAMP ID='CONE-RAMP', T=282.2215, F=239.5, /
&RAMP ID='CONE-RAMP', T=283.2987, F=241.2, /
&RAMP ID='CONE-RAMP', T=284.3758, F=242.9, /
&RAMP ID='CONE-RAMP', T=285.4530, F=244.7, /
&RAMP ID='CONE-RAMP', T=286.5302, F=246.3, /
&RAMP ID='CONE-RAMP', T=287.6074, F=248.2, /
&RAMP ID='CONE-RAMP', T=288.6846, F=250.0, /
&RAMP ID='CONE-RAMP', T=289.7617, F=251.8, /
&RAMP ID='CONE-RAMP', T=290.8389, F=253.7, /
&RAMP ID='CONE-RAMP', T=291.9161, F=255.4, /
&RAMP ID='CONE-RAMP', T=292.9933, F=257.3, /
&RAMP ID='CONE-RAMP', T=294.0705, F=259.4, /
&RAMP ID='CONE-RAMP', T=295.1477, F=261.5, /
&RAMP ID='CONE-RAMP', T=296.2248, F=263.4, /
&RAMP ID='CONE-RAMP', T=297.3020, F=265.3, /
&RAMP ID='CONE-RAMP', T=298.3792, F=267.5, /
&RAMP ID='CONE-RAMP', T=299.4564, F=269.6, /
&RAMP ID='CONE-RAMP', T=300.5336, F=271.4, /
&RAMP ID='CONE-RAMP', T=301.6107, F=273.4, /
&RAMP ID='CONE-RAMP', T=302.6879, F=275.5, /
&RAMP ID='CONE-RAMP', T=303.7651, F=277.1, /
&RAMP ID='CONE-RAMP', T=304.8423, F=278.8, /
&RAMP ID='CONE-RAMP', T=305.9195, F=280.6, /
&RAMP ID='CONE-RAMP', T=306.9966, F=282.5, /
&RAMP ID='CONE-RAMP', T=308.0738, F=284.4, /
&RAMP ID='CONE-RAMP', T=309.1510, F=286.2, /
&RAMP ID='CONE-RAMP', T=310.2282, F=288.2, /
&RAMP ID='CONE-RAMP', T=311.3054, F=290.4, /
&RAMP ID='CONE-RAMP', T=312.3826, F=292.3, /
&RAMP ID='CONE-RAMP', T=313.4597, F=294.4, /
&RAMP ID='CONE-RAMP', T=314.5369, F=296.7, /
&RAMP ID='CONE-RAMP', T=315.6141, F=299.2, /
&RAMP ID='CONE-RAMP', T=316.6913, F=301.6, /
&RAMP ID='CONE-RAMP', T=317.7685, F=303.9, /
&RAMP ID='CONE-RAMP', T=318.8456, F=306.2, /
&RAMP ID='CONE-RAMP', T=319.9228, F=308.8, /
&RAMP ID='CONE-RAMP', T=321.0000, F=311.5, /
&RAMP ID='CONE-RAMP', T=322.0772, F=314.1, /
&RAMP ID='CONE-RAMP', T=323.1544, F=317.2, /
&RAMP ID='CONE-RAMP', T=324.2315, F=320.2, /
&RAMP ID='CONE-RAMP', T=325.3087, F=323.1, /
&RAMP ID='CONE-RAMP', T=326.3859, F=326.2, /
&RAMP ID='CONE-RAMP', T=327.4631, F=329.4, /
&RAMP ID='CONE-RAMP', T=328.5403, F=332.6, /
&RAMP ID='CONE-RAMP', T=329.6174, F=335.8, /
&RAMP ID='CONE-RAMP', T=330.6946, F=338.6, /
&RAMP ID='CONE-RAMP', T=331.7718, F=341.9, /
&RAMP ID='CONE-RAMP', T=332.8490, F=344.9, /
&RAMP ID='CONE-RAMP', T=333.9262, F=347.5, /
&RAMP ID='CONE-RAMP', T=335.0034, F=350.1, /
&RAMP ID='CONE-RAMP', T=336.0805, F=352.2, /
&RAMP ID='CONE-RAMP', T=337.1577, F=354.0, /
&RAMP ID='CONE-RAMP', T=338.2349, F=355.2, /
&RAMP ID='CONE-RAMP', T=339.3121, F=356.2, /
&RAMP ID='CONE-RAMP', T=340.3893, F=356.3, /
&RAMP ID='CONE-RAMP', T=341.4664, F=355.7, /
&RAMP ID='CONE-RAMP', T=342.5436, F=354.2, /
&RAMP ID='CONE-RAMP', T=343.6208, F=352.0, /
&RAMP ID='CONE-RAMP', T=344.6980, F=349.1, /
&RAMP ID='CONE-RAMP', T=345.7752, F=345.5, /
&RAMP ID='CONE-RAMP', T=346.8523, F=341.1, /
&RAMP ID='CONE-RAMP', T=347.9295, F=336.5, /
&RAMP ID='CONE-RAMP', T=349.0067, F=330.9, /
&RAMP ID='CONE-RAMP', T=350.0839, F=325.2, /
&RAMP ID='CONE-RAMP', T=351.1611, F=319.6, /
&RAMP ID='CONE-RAMP', T=352.2383, F=314.1, /
&RAMP ID='CONE-RAMP', T=353.3154, F=308.5, /
&RAMP ID='CONE-RAMP', T=354.3926, F=303.0, /
&RAMP ID='CONE-RAMP', T=355.4698, F=297.5, /
&RAMP ID='CONE-RAMP', T=356.5470, F=292.2, /
&RAMP ID='CONE-RAMP', T=357.6242, F=286.9, /
&RAMP ID='CONE-RAMP', T=358.7013, F=281.7, /
&RAMP ID='CONE-RAMP', T=359.7785, F=276.4, /
&RAMP ID='CONE-RAMP', T=360.8557, F=271.1, /
&RAMP ID='CONE-RAMP', T=361.9329, F=265.4, /
&RAMP ID='CONE-RAMP', T=363.0101, F=259.4, /
&RAMP ID='CONE-RAMP', T=364.0872, F=252.9, /
&RAMP ID='CONE-RAMP', T=365.1644, F=246.3, /
&RAMP ID='CONE-RAMP', T=366.2416, F=239.5, /
&RAMP ID='CONE-RAMP', T=367.3188, F=232.4, /
&RAMP ID='CONE-RAMP', T=368.3960, F=224.7, /
&RAMP ID='CONE-RAMP', T=369.4732, F=216.8, /
&RAMP ID='CONE-RAMP', T=370.5503, F=208.4, /
&RAMP ID='CONE-RAMP', T=371.6275, F=200.2, /
&RAMP ID='CONE-RAMP', T=372.7047, F=191.9, /
&RAMP ID='CONE-RAMP', T=373.7819, F=183.7, /
&RAMP ID='CONE-RAMP', T=374.8591, F=175.5, /
&RAMP ID='CONE-RAMP', T=375.9362, F=167.4, /
&RAMP ID='CONE-RAMP', T=377.0134, F=159.3, /
&RAMP ID='CONE-RAMP', T=378.0906, F=151.4, /
&RAMP ID='CONE-RAMP', T=379.1678, F=143.9, /
&RAMP ID='CONE-RAMP', T=380.2450, F=136.6, /
&RAMP ID='CONE-RAMP', T=381.3221, F=129.6, /
&RAMP ID='CONE-RAMP', T=382.3993, F=122.7, /
&RAMP ID='CONE-RAMP', T=383.4765, F=116.1, /
&RAMP ID='CONE-RAMP', T=384.5537, F=109.9, /
&RAMP ID='CONE-RAMP', T=385.6309, F=104.1, /
&RAMP ID='CONE-RAMP', T=386.7081, F=98.8, /
&RAMP ID='CONE-RAMP', T=387.7852, F=94.0, /
&RAMP ID='CONE-RAMP', T=388.8624, F=89.4, /
&RAMP ID='CONE-RAMP', T=389.9396, F=85.2, /
&RAMP ID='CONE-RAMP', T=391.0168, F=81.5, /
&RAMP ID='CONE-RAMP', T=392.0940, F=78.1, /
&RAMP ID='CONE-RAMP', T=393.1711, F=75.0, /
&RAMP ID='CONE-RAMP', T=394.2483, F=72.2, /
&RAMP ID='CONE-RAMP', T=395.3255, F=69.6, /
&RAMP ID='CONE-RAMP', T=396.4027, F=67.2, /
&RAMP ID='CONE-RAMP', T=397.4799, F=65.0, /
&RAMP ID='CONE-RAMP', T=398.5570, F=63.0, /
&RAMP ID='CONE-RAMP', T=399.6342, F=61.2, /
&RAMP ID='CONE-RAMP', T=400.7114, F=59.6, /
&RAMP ID='CONE-RAMP', T=401.7886, F=58.1, /
&RAMP ID='CONE-RAMP', T=402.8658, F=56.8, /
&RAMP ID='CONE-RAMP', T=403.9430, F=55.6, /
&RAMP ID='CONE-RAMP', T=405.0201, F=54.6, /
&RAMP ID='CONE-RAMP', T=406.0973, F=53.6, /
&RAMP ID='CONE-RAMP', T=407.1745, F=52.7, /
&RAMP ID='CONE-RAMP', T=408.2517, F=52.0, /
&RAMP ID='CONE-RAMP', T=409.3289, F=51.2, /
&RAMP ID='CONE-RAMP', T=410.4060, F=50.6, /
&RAMP ID='CONE-RAMP', T=411.4832, F=50.0, /
&RAMP ID='CONE-RAMP', T=412.5604, F=49.5, /
&RAMP ID='CONE-RAMP', T=413.6376, F=49.1, /
&RAMP ID='CONE-RAMP', T=414.7148, F=48.6, /
&RAMP ID='CONE-RAMP', T=415.7919, F=48.2, /
&RAMP ID='CONE-RAMP', T=416.8691, F=47.8, /
&RAMP ID='CONE-RAMP', T=417.9463, F=47.4, /
&RAMP ID='CONE-RAMP', T=419.0235, F=47.0, /
&RAMP ID='CONE-RAMP', T=420.1007, F=46.7, /
&RAMP ID='CONE-RAMP', T=421.1779, F=46.4, /
&RAMP ID='CONE-RAMP', T=422.2550, F=46.1, /
&RAMP ID='CONE-RAMP', T=423.3322, F=45.8, /
&RAMP ID='CONE-RAMP', T=424.4094, F=45.5, /
&RAMP ID='CONE-RAMP', T=425.4866, F=45.3, /
&RAMP ID='CONE-RAMP', T=426.5638, F=45.0, /
&RAMP ID='CONE-RAMP', T=427.6409, F=44.8, /
&RAMP ID='CONE-RAMP', T=428.7181, F=44.5, /
&RAMP ID='CONE-RAMP', T=429.7953, F=44.3, /
&RAMP ID='CONE-RAMP', T=430.8725, F=44.1, /
&RAMP ID='CONE-RAMP', T=431.9497, F=43.9, /
&RAMP ID='CONE-RAMP', T=433.0268, F=43.7, /
&RAMP ID='CONE-RAMP', T=434.1040, F=43.5, /
&RAMP ID='CONE-RAMP', T=435.1812, F=43.3, /
&RAMP ID='CONE-RAMP', T=436.2584, F=43.1, /
&RAMP ID='CONE-RAMP', T=437.3356, F=42.9, /
&RAMP ID='CONE-RAMP', T=438.4128, F=42.8, /
&RAMP ID='CONE-RAMP', T=439.4899, F=42.7, /
&RAMP ID='CONE-RAMP', T=440.5671, F=42.5, /
&RAMP ID='CONE-RAMP', T=441.6443, F=42.4, /
&RAMP ID='CONE-RAMP', T=442.7215, F=42.2, /
&RAMP ID='CONE-RAMP', T=443.7987, F=42.0, /
&RAMP ID='CONE-RAMP', T=444.8758, F=41.8, /
&RAMP ID='CONE-RAMP', T=445.9530, F=41.7, /
&RAMP ID='CONE-RAMP', T=447.0302, F=41.5, /
&RAMP ID='CONE-RAMP', T=448.1074, F=41.3, /
&RAMP ID='CONE-RAMP', T=449.1846, F=41.2, /
&RAMP ID='CONE-RAMP', T=450.2617, F=41.1, /
&RAMP ID='CONE-RAMP', T=451.3389, F=41.0, /
&RAMP ID='CONE-RAMP', T=452.4161, F=40.9, /
&RAMP ID='CONE-RAMP', T=453.4933, F=40.9, /
&RAMP ID='CONE-RAMP', T=454.5705, F=40.8, /
&RAMP ID='CONE-RAMP', T=455.6477, F=40.8, /
&RAMP ID='CONE-RAMP', T=456.7248, F=40.7, /
&RAMP ID='CONE-RAMP', T=457.8020, F=40.7, /
&RAMP ID='CONE-RAMP', T=458.8792, F=40.6, /
&RAMP ID='CONE-RAMP', T=459.9564, F=40.5, /
&RAMP ID='CONE-RAMP', T=461.0336, F=40.4, /
&RAMP ID='CONE-RAMP', T=462.1107, F=40.2, /
&RAMP ID='CONE-RAMP', T=463.1879, F=40.1, /
&RAMP ID='CONE-RAMP', T=464.2651, F=39.9, /
&RAMP ID='CONE-RAMP', T=465.3423, F=39.8, /
&RAMP ID='CONE-RAMP', T=466.4195, F=39.7, /
&RAMP ID='CONE-RAMP', T=467.4966, F=39.5, /
&RAMP ID='CONE-RAMP', T=468.5738, F=39.5, /
&RAMP ID='CONE-RAMP', T=469.6510, F=39.4, /
&RAMP ID='CONE-RAMP', T=470.7282, F=39.4, /
&RAMP ID='CONE-RAMP', T=471.8054, F=39.3, /
&RAMP ID='CONE-RAMP', T=472.8826, F=39.2, /
&RAMP ID='CONE-RAMP', T=473.9597, F=39.2, /
&RAMP ID='CONE-RAMP', T=475.0369, F=39.2, /
&RAMP ID='CONE-RAMP', T=476.1141, F=39.2, /
&RAMP ID='CONE-RAMP', T=477.1913, F=39.1, /
&RAMP ID='CONE-RAMP', T=478.2685, F=39.1, /
&RAMP ID='CONE-RAMP', T=479.3456, F=39.1, /
&RAMP ID='CONE-RAMP', T=480.4228, F=39.0, /
&RAMP ID='CONE-RAMP', T=481.5000, F=39.0, /
&RAMP ID='CONE-RAMP', T=482.5772, F=39.0, /
&RAMP ID='CONE-RAMP', T=483.6544, F=39.0, /
&RAMP ID='CONE-RAMP', T=484.7315, F=39.0, /
&RAMP ID='CONE-RAMP', T=485.8087, F=39.0, /
&RAMP ID='CONE-RAMP', T=486.8859, F=38.9, /
&RAMP ID='CONE-RAMP', T=487.9631, F=38.9, /
&RAMP ID='CONE-RAMP', T=489.0403, F=38.8, /
&RAMP ID='CONE-RAMP', T=490.1174, F=38.7, /
&RAMP ID='CONE-RAMP', T=491.1946, F=38.6, /
&RAMP ID='CONE-RAMP', T=492.2718, F=38.5, /
&RAMP ID='CONE-RAMP', T=493.3490, F=38.4, /
&RAMP ID='CONE-RAMP', T=494.4262, F=38.2, /
&RAMP ID='CONE-RAMP', T=495.5034, F=38.1, /
&RAMP ID='CONE-RAMP', T=496.5805, F=38.0, /
&RAMP ID='CONE-RAMP', T=497.6577, F=37.9, /
&RAMP ID='CONE-RAMP', T=498.7349, F=37.9, /
&RAMP ID='CONE-RAMP', T=499.8121, F=37.8, /
&RAMP ID='CONE-RAMP', T=500.8893, F=37.7, /
&RAMP ID='CONE-RAMP', T=501.9664, F=37.7, /
&RAMP ID='CONE-RAMP', T=503.0436, F=37.6, /
&RAMP ID='CONE-RAMP', T=504.1208, F=37.5, /
&RAMP ID='CONE-RAMP', T=505.1980, F=37.5, /
&RAMP ID='CONE-RAMP', T=506.2752, F=37.5, /
&RAMP ID='CONE-RAMP', T=507.3523, F=37.4, /
&RAMP ID='CONE-RAMP', T=508.4295, F=37.4, /
&RAMP ID='CONE-RAMP', T=509.5067, F=37.3, /
&RAMP ID='CONE-RAMP', T=510.5839, F=37.4, /
&RAMP ID='CONE-RAMP', T=511.6611, F=37.4, /
&RAMP ID='CONE-RAMP', T=512.7383, F=37.4, /
&RAMP ID='CONE-RAMP', T=513.8154, F=37.5, /
&RAMP ID='CONE-RAMP', T=514.8926, F=37.6, /
&RAMP ID='CONE-RAMP', T=515.9698, F=37.6, /
&RAMP ID='CONE-RAMP', T=517.0470, F=37.6, /
&RAMP ID='CONE-RAMP', T=518.1242, F=37.6, /
&RAMP ID='CONE-RAMP', T=519.2013, F=37.6, /
&RAMP ID='CONE-RAMP', T=520.2785, F=37.5, /
&RAMP ID='CONE-RAMP', T=521.3557, F=37.4, /
&RAMP ID='CONE-RAMP', T=522.4329, F=37.3, /
&RAMP ID='CONE-RAMP', T=523.5101, F=37.2, /
&RAMP ID='CONE-RAMP', T=524.5872, F=37.0, /
&RAMP ID='CONE-RAMP', T=525.6644, F=36.8, /
&RAMP ID='CONE-RAMP', T=526.7416, F=36.7, /
&RAMP ID='CONE-RAMP', T=527.8188, F=36.5, /
&RAMP ID='CONE-RAMP', T=528.8960, F=36.4, /
&RAMP ID='CONE-RAMP', T=529.9732, F=36.3, /
&RAMP ID='CONE-RAMP', T=531.0503, F=36.2, /
&RAMP ID='CONE-RAMP', T=532.1275, F=36.1, /
&RAMP ID='CONE-RAMP', T=533.2047, F=36.0, /
&RAMP ID='CONE-RAMP', T=534.2819, F=36.1, /
&RAMP ID='CONE-RAMP', T=535.3591, F=36.1, /
&RAMP ID='CONE-RAMP', T=536.4362, F=36.2, /
&RAMP ID='CONE-RAMP', T=537.5134, F=36.2, /
&RAMP ID='CONE-RAMP', T=538.5906, F=36.2, /
&RAMP ID='CONE-RAMP', T=539.6678, F=36.1, /
&RAMP ID='CONE-RAMP', T=540.7450, F=36.1, /
&RAMP ID='CONE-RAMP', T=541.8221, F=36.1, /
&RAMP ID='CONE-RAMP', T=542.8993, F=36.0, /
&RAMP ID='CONE-RAMP', T=543.9765, F=36.0, /
&RAMP ID='CONE-RAMP', T=545.0537, F=36.0, /
&RAMP ID='CONE-RAMP', T=546.1309, F=35.9, /
&RAMP ID='CONE-RAMP', T=547.2081, F=35.9, /
&RAMP ID='CONE-RAMP', T=548.2852, F=35.9, /
&RAMP ID='CONE-RAMP', T=549.3624, F=36.0, /
&RAMP ID='CONE-RAMP', T=550.4396, F=36.0, /
&RAMP ID='CONE-RAMP', T=551.5168, F=36.1, /
&RAMP ID='CONE-RAMP', T=552.5940, F=36.1, /
&RAMP ID='CONE-RAMP', T=553.6711, F=36.1, /
&RAMP ID='CONE-RAMP', T=554.7483, F=36.1, /
&RAMP ID='CONE-RAMP', T=555.8255, F=36.1, /
&RAMP ID='CONE-RAMP', T=556.9027, F=36.1, /
&RAMP ID='CONE-RAMP', T=557.9799, F=36.1, /
&RAMP ID='CONE-RAMP', T=559.0570, F=36.1, /
&RAMP ID='CONE-RAMP', T=560.1342, F=36.0, /
&RAMP ID='CONE-RAMP', T=561.2114, F=36.0, /
&RAMP ID='CONE-RAMP', T=562.2886, F=36.0, /
&RAMP ID='CONE-RAMP', T=563.3658, F=35.9, /
&RAMP ID='CONE-RAMP', T=564.4430, F=35.8, /
&RAMP ID='CONE-RAMP', T=565.5201, F=35.8, /
&RAMP ID='CONE-RAMP', T=566.5973, F=35.7, /
&RAMP ID='CONE-RAMP', T=567.6745, F=35.6, /
&RAMP ID='CONE-RAMP', T=568.7517, F=35.5, /
&RAMP ID='CONE-RAMP', T=569.8289, F=35.4, /
&RAMP ID='CONE-RAMP', T=570.9060, F=35.4, /
&RAMP ID='CONE-RAMP', T=571.9832, F=35.3, /
&RAMP ID='CONE-RAMP', T=573.0604, F=35.3, /
&RAMP ID='CONE-RAMP', T=574.1376, F=35.2, /
&RAMP ID='CONE-RAMP', T=575.2148, F=35.2, /
&RAMP ID='CONE-RAMP', T=576.2919, F=35.2, /
&RAMP ID='CONE-RAMP', T=577.3691, F=35.1, /
&RAMP ID='CONE-RAMP', T=578.4463, F=35.1, /
&RAMP ID='CONE-RAMP', T=579.5235, F=35.0, /
&RAMP ID='CONE-RAMP', T=580.6007, F=35.0, /
&RAMP ID='CONE-RAMP', T=581.6779, F=35.0, /
&RAMP ID='CONE-RAMP', T=582.7550, F=34.9, /
&RAMP ID='CONE-RAMP', T=583.8322, F=34.9, /
&RAMP ID='CONE-RAMP', T=584.9094, F=34.9, /
&RAMP ID='CONE-RAMP', T=585.9866, F=34.8, /
&RAMP ID='CONE-RAMP', T=587.0638, F=34.8, /
&RAMP ID='CONE-RAMP', T=588.1409, F=34.8, /
&RAMP ID='CONE-RAMP', T=589.2181, F=34.7, /
&RAMP ID='CONE-RAMP', T=590.2953, F=34.7, /
&RAMP ID='CONE-RAMP', T=591.3725, F=34.7, /
&RAMP ID='CONE-RAMP', T=592.4497, F=34.6, /
&RAMP ID='CONE-RAMP', T=593.5268, F=34.5, /
&RAMP ID='CONE-RAMP', T=594.6040, F=34.4, /
&RAMP ID='CONE-RAMP', T=595.6812, F=34.3, /
&RAMP ID='CONE-RAMP', T=596.7584, F=34.2, /
&RAMP ID='CONE-RAMP', T=597.8356, F=34.2, /
&RAMP ID='CONE-RAMP', T=598.9128, F=34.2, /
&RAMP ID='CONE-RAMP', T=599.9899, F=34.2, /
&RAMP ID='CONE-RAMP', T=601.0671, F=34.3, /
&RAMP ID='CONE-RAMP', T=602.1443, F=34.3, /
&RAMP ID='CONE-RAMP', T=603.2215, F=34.5, /
&RAMP ID='CONE-RAMP', T=604.2987, F=34.6, /
&RAMP ID='CONE-RAMP', T=605.3758, F=34.9, /
&RAMP ID='CONE-RAMP', T=606.4530, F=35.1, /
&RAMP ID='CONE-RAMP', T=607.5302, F=35.3, /
&RAMP ID='CONE-RAMP', T=608.6074, F=35.4, /
&RAMP ID='CONE-RAMP', T=609.6846, F=35.4, /
&RAMP ID='CONE-RAMP', T=610.7617, F=35.5, /
&RAMP ID='CONE-RAMP', T=611.8389, F=35.5, /
&RAMP ID='CONE-RAMP', T=612.9161, F=35.4, /
&RAMP ID='CONE-RAMP', T=613.9933, F=35.4, /
&RAMP ID='CONE-RAMP', T=615.0705, F=35.3, /
&RAMP ID='CONE-RAMP', T=616.1477, F=35.2, /
&RAMP ID='CONE-RAMP', T=617.2248, F=35.1, /
&RAMP ID='CONE-RAMP', T=618.3020, F=35.0, /
&RAMP ID='CONE-RAMP', T=619.3792, F=34.9, /
&RAMP ID='CONE-RAMP', T=620.4564, F=34.9, /
&RAMP ID='CONE-RAMP', T=621.5336, F=34.8, /
&RAMP ID='CONE-RAMP', T=622.6107, F=34.7, /
&RAMP ID='CONE-RAMP', T=623.6879, F=34.6, /
&RAMP ID='CONE-RAMP', T=624.7651, F=34.5, /
&RAMP ID='CONE-RAMP', T=625.8423, F=34.4, /
&RAMP ID='CONE-RAMP', T=626.9195, F=34.3, /
&RAMP ID='CONE-RAMP', T=627.9966, F=34.2, /
&RAMP ID='CONE-RAMP', T=629.0738, F=34.1, /
&RAMP ID='CONE-RAMP', T=630.1510, F=34.0, /
&RAMP ID='CONE-RAMP', T=631.2282, F=33.9, /
&RAMP ID='CONE-RAMP', T=632.3054, F=33.8, /
&RAMP ID='CONE-RAMP', T=633.3826, F=33.7, /
&RAMP ID='CONE-RAMP', T=634.4597, F=33.6, /
&RAMP ID='CONE-RAMP', T=635.5369, F=33.6, /
&RAMP ID='CONE-RAMP', T=636.6141, F=33.5, /
&RAMP ID='CONE-RAMP', T=637.6913, F=33.5, /
&RAMP ID='CONE-RAMP', T=638.7685, F=33.5, /
&RAMP ID='CONE-RAMP', T=639.8456, F=33.5, /
&RAMP ID='CONE-RAMP', T=640.9228, F=33.5, /
&RAMP ID='CONE-RAMP', T=642.0000, F=33.6, /
&RAMP ID='CONE-RAMP', T=643.0772, F=33.7, /
&RAMP ID='CONE-RAMP', T=644.1544, F=33.8, /
&RAMP ID='CONE-RAMP', T=645.2315, F=33.8, /
&RAMP ID='CONE-RAMP', T=646.3087, F=33.9, /
&RAMP ID='CONE-RAMP', T=647.3859, F=33.9, /
&RAMP ID='CONE-RAMP', T=648.4631, F=33.9, /
&RAMP ID='CONE-RAMP', T=649.5403, F=33.9, /
&RAMP ID='CONE-RAMP', T=650.6174, F=33.9, /
&RAMP ID='CONE-RAMP', T=651.6946, F=33.8, /
&RAMP ID='CONE-RAMP', T=652.7718, F=33.7, /
&RAMP ID='CONE-RAMP', T=653.8490, F=33.7, /
&RAMP ID='CONE-RAMP', T=654.9262, F=33.7, /
&RAMP ID='CONE-RAMP', T=656.0034, F=33.6, /
&RAMP ID='CONE-RAMP', T=657.0805, F=33.6, /
&RAMP ID='CONE-RAMP', T=658.1577, F=33.5, /
&RAMP ID='CONE-RAMP', T=659.2349, F=33.4, /
&RAMP ID='CONE-RAMP', T=660.3121, F=33.4, /
&RAMP ID='CONE-RAMP', T=661.3893, F=33.4, /
&RAMP ID='CONE-RAMP', T=662.4664, F=33.3, /
&RAMP ID='CONE-RAMP', T=663.5436, F=33.3, /
&RAMP ID='CONE-RAMP', T=664.6208, F=33.3, /
&RAMP ID='CONE-RAMP', T=665.6980, F=33.3, /
&RAMP ID='CONE-RAMP', T=666.7752, F=33.3, /
&RAMP ID='CONE-RAMP', T=667.8523, F=33.4, /
&RAMP ID='CONE-RAMP', T=668.9295, F=33.5, /
&RAMP ID='CONE-RAMP', T=670.0067, F=33.5, /
&RAMP ID='CONE-RAMP', T=671.0839, F=33.6, /
&RAMP ID='CONE-RAMP', T=672.1611, F=33.6, /
&RAMP ID='CONE-RAMP', T=673.2383, F=33.7, /
&RAMP ID='CONE-RAMP', T=674.3154, F=33.7, /
&RAMP ID='CONE-RAMP', T=675.3926, F=33.7, /
&RAMP ID='CONE-RAMP', T=676.4698, F=33.7, /
&RAMP ID='CONE-RAMP', T=677.5470, F=33.8, /
&RAMP ID='CONE-RAMP', T=678.6242, F=33.8, /
&RAMP ID='CONE-RAMP', T=679.7013, F=33.8, /
&RAMP ID='CONE-RAMP', T=680.7785, F=33.9, /
&RAMP ID='CONE-RAMP', T=681.8557, F=33.9, /
&RAMP ID='CONE-RAMP', T=682.9329, F=34.0, /
&RAMP ID='CONE-RAMP', T=684.0101, F=34.0, /
&RAMP ID='CONE-RAMP', T=685.0872, F=34.1, /
&RAMP ID='CONE-RAMP', T=686.1644, F=34.1, /
&RAMP ID='CONE-RAMP', T=687.2416, F=34.1, /
&RAMP ID='CONE-RAMP', T=688.3188, F=34.1, /
&RAMP ID='CONE-RAMP', T=689.3960, F=34.1, /
&RAMP ID='CONE-RAMP', T=690.4732, F=34.1, /
&RAMP ID='CONE-RAMP', T=691.5503, F=34.1, /
&RAMP ID='CONE-RAMP', T=692.6275, F=34.1, /
&RAMP ID='CONE-RAMP', T=693.7047, F=34.1, /
&RAMP ID='CONE-RAMP', T=694.7819, F=34.2, /
&RAMP ID='CONE-RAMP', T=695.8591, F=34.2, /
&RAMP ID='CONE-RAMP', T=696.9362, F=34.3, /
&RAMP ID='CONE-RAMP', T=698.0134, F=34.4, /
&RAMP ID='CONE-RAMP', T=699.0906, F=34.5, /
&RAMP ID='CONE-RAMP', T=700.1678, F=34.6, /
&RAMP ID='CONE-RAMP', T=701.2450, F=34.7, /
&RAMP ID='CONE-RAMP', T=702.3221, F=34.7, /
&RAMP ID='CONE-RAMP', T=703.3993, F=34.8, /
&RAMP ID='CONE-RAMP', T=704.4765, F=34.8, /
&RAMP ID='CONE-RAMP', T=705.5537, F=34.8, /
&RAMP ID='CONE-RAMP', T=706.6309, F=34.7, /
&RAMP ID='CONE-RAMP', T=707.7081, F=34.6, /
&RAMP ID='CONE-RAMP', T=708.7852, F=34.6, /
&RAMP ID='CONE-RAMP', T=709.8624, F=34.5, /
&RAMP ID='CONE-RAMP', T=710.9396, F=34.4, /
&RAMP ID='CONE-RAMP', T=712.0168, F=34.4, /
&RAMP ID='CONE-RAMP', T=713.0940, F=34.3, /
&RAMP ID='CONE-RAMP', T=714.1711, F=34.3, /
&RAMP ID='CONE-RAMP', T=715.2483, F=34.3, /